molecule_1
  -OEChem-08062404073D

 20 21  0     0  0  0  0  0  0999 V2000
    3.6927   12.7958   44.8158 C   0  0  0  0  0  0  0  0  0  0  0  0
    3.3356   14.1085   44.5851 C   0  0  0  0  0  0  0  0  0  0  0  0
    4.0674   12.0738   43.7013 C   0  0  0  0  0  0  0  0  0  0  0  0
    3.7247   13.8754   42.3573 C   0  0  0  0  0  0  0  0  0  0  0  0
    2.4898   15.1157   40.4571 C   0  0  0  0  0  0  0  0  0  0  0  0
    2.9570   13.8114   39.8908 C   0  0  0  0  0  0  0  0  0  0  0  0
    3.7431   14.4743   40.9908 C   0  0  0  0  0  0  0  0  0  0  0  0
    3.6747   12.1966   46.1789 C   0  0  0  0  0  0  0  0  0  0  0  0
    3.3401   14.6829   43.3642 N   0  0  0  0  0  0  0  0  0  0  0  0
    4.0948   12.5836   42.4522 N   0  0  0  0  0  0  0  0  0  0  0  0
    2.8402   15.1667   45.8467 Cl  0  0  0  0  0  0  0  0  0  0  0  0
    4.5443   10.4237   43.7861 Cl  0  0  0  0  0  0  0  0  0  0  0  0
    2.6053   16.0021   39.8446 H   0  0  0  0  0  0  0  0  0  0  0  0
    1.5918   15.1078   41.0632 H   0  0  0  0  0  0  0  0  0  0  0  0
    2.3737   12.9267   40.1169 H   0  0  0  0  0  0  0  0  0  0  0  0
    3.3879   13.8179   38.8967 H   0  0  0  0  0  0  0  0  0  0  0  0
    4.6793   14.9349   40.7043 H   0  0  0  0  0  0  0  0  0  0  0  0
    2.6987   11.7464   46.4065 H   0  0  0  0  0  0  0  0  0  0  0  0
    3.8611   12.9548   46.9522 H   0  0  0  0  0  0  0  0  0  0  0  0
    4.4433   11.4176   46.2663 H   0  0  0  0  0  0  0  0  0  0  0  0
  1  2  1  0  0  0  0
  1  3  2  0  0  0  0
  1  8  1  0  0  0  0
  2  9  2  0  0  0  0
  2 11  1  0  0  0  0
  3 10  1  0  0  0  0
  3 12  1  0  0  0  0
  4  7  1  0  0  0  0
  4  9  1  0  0  0  0
  4 10  2  0  0  0  0
  5  6  1  0  0  0  0
  5  7  1  0  0  0  0
  6  7  1  0  0  0  0
  5 13  1  0  0  0  0
  5 14  1  0  0  0  0
  6 15  1  0  0  0  0
  6 16  1  0  0  0  0
  7 17  1  0  0  0  0
  8 18  1  0  0  0  0
  8 19  1  0  0  0  0
  8 20  1  0  0  0  0
M  END
> <HYBRID receptor title>
10_LEAD(B) > S9I(B-803)

> <HYBRID receptor filename>
data/docking/pairs/10_lead.oedu

> <HYBRID Chemgauss4 score>
-8.561701

> <HYBRID receptor title>
10_LEAD(B) > S9I(B-803)

> <HYBRID receptor filename>
data/docking/pairs/10_lead.oedu

> <Dock Type>
Hybrid

$$$$
