molecule_1
  -OEChem-08062404073D

 49 52  0     1  0  0  0  0  0999 V2000
    2.5571   17.4723   35.3135 C   0  0  0  0  0  0  0  0  0  0  0  0
    2.2031   16.5733   36.3134 C   0  0  0  0  0  0  0  0  0  0  0  0
    4.6119   12.4727   43.1782 C   0  0  0  0  0  0  0  0  0  0  0  0
    3.7451   18.7353   36.9416 C   0  0  0  0  0  0  0  0  0  0  0  0
    3.3425   18.5765   35.6249 C   0  0  0  0  0  0  0  0  0  0  0  0
    2.6565   16.8213   37.5990 C   0  0  0  0  0  0  0  0  0  0  0  0
    4.5297   12.2445   44.5366 C   0  0  0  0  0  0  0  0  0  0  0  0
    3.9161   13.5697   42.7133 C   0  0  0  0  0  0  0  0  0  0  0  0
    3.1896   14.0604   44.8111 C   0  0  0  0  0  0  0  0  0  0  0  0
    7.1520    7.0542   46.0069 C   0  0  0  0  0  0  0  0  0  0  0  0
    6.6041    9.1261   45.0195 C   0  0  0  0  0  0  0  0  0  0  0  0
    2.6064   14.4037   38.5141 C   0  0  0  0  0  0  0  0  0  0  0  0
    2.2916   15.8748   38.6803 C   0  0  1  0  0  0  0  0  0  0  0  0
    3.3904   15.2241   39.4946 C   0  0  1  0  0  0  0  0  0  0  0  0
    3.7382   19.5560   34.5779 C   0  0  0  0  0  0  0  0  0  0  0  0
    2.4004   14.9425   45.7176 C   0  0  0  0  0  0  0  0  0  0  0  0
    7.2239    5.6439   46.4394 C   0  0  0  0  0  0  0  0  0  0  0  0
    6.0029   10.2544   44.2315 C   0  0  0  0  0  0  0  0  0  0  0  0
    3.2118   15.0127   40.9587 C   0  0  0  0  0  0  0  0  0  0  0  0
    3.4209   17.8829   37.9397 N   0  0  0  0  0  0  0  0  0  0  0  0
    3.8250   13.0211   45.3856 N   0  0  0  0  0  0  0  0  0  0  0  0
    3.1916   14.3881   43.5046 N   0  0  0  0  0  0  0  0  0  0  0  0
    7.9625    8.0126   46.4030 N   0  0  0  0  0  0  0  0  0  0  0  0
    7.6408    9.2273   45.8232 N   0  0  0  0  0  0  0  0  0  0  0  0
    5.2317   11.1284   45.0542 N   0  0  0  0  0  0  0  0  0  0  0  0
    3.9516   13.8657   41.3784 O   0  0  0  0  0  0  0  0  0  0  0  0
    5.9372    7.5500   44.9018 S   0  0  0  0  0  0  0  0  0  0  0  0
    2.2167   17.3053   34.2952 H   0  0  0  0  0  0  0  0  0  0  0  0
    1.5909   15.7085   36.0815 H   0  0  0  0  0  0  0  0  0  0  0  0
    5.1856   11.8368   42.5144 H   0  0  0  0  0  0  0  0  0  0  0  0
    4.3591   19.5781   37.2437 H   0  0  0  0  0  0  0  0  0  0  0  0
    1.8840   13.6909   38.8946 H   0  0  0  0  0  0  0  0  0  0  0  0
    3.1142   14.0769   37.6141 H   0  0  0  0  0  0  0  0  0  0  0  0
    1.3671   16.1011   39.2043 H   0  0  0  0  0  0  0  0  0  0  0  0
    4.4215   15.4480   39.2458 H   0  0  0  0  0  0  0  0  0  0  0  0
    3.0019   20.3672   34.4861 H   0  0  0  0  0  0  0  0  0  0  0  0
    3.8080   19.0812   33.5886 H   0  0  0  0  0  0  0  0  0  0  0  0
    4.7135   20.0018   34.8153 H   0  0  0  0  0  0  0  0  0  0  0  0
    3.0139   15.7651   46.1085 H   0  0  0  0  0  0  0  0  0  0  0  0
    2.0239   14.3866   46.5867 H   0  0  0  0  0  0  0  0  0  0  0  0
    1.5441   15.3722   45.1829 H   0  0  0  0  0  0  0  0  0  0  0  0
    6.6170    5.4565   47.3414 H   0  0  0  0  0  0  0  0  0  0  0  0
    8.2540    5.3428   46.6962 H   0  0  0  0  0  0  0  0  0  0  0  0
    6.8645    4.9674   45.6470 H   0  0  0  0  0  0  0  0  0  0  0  0
    6.7862   10.8485   43.7491 H   0  0  0  0  0  0  0  0  0  0  0  0
    5.3481    9.8754   43.4400 H   0  0  0  0  0  0  0  0  0  0  0  0
    2.1541   14.8446   41.2205 H   0  0  0  0  0  0  0  0  0  0  0  0
    3.5719   15.8764   41.5428 H   0  0  0  0  0  0  0  0  0  0  0  0
    5.1632   10.9745   46.0395 H   0  0  0  0  0  0  0  0  0  0  0  0
  1  2  2  0  0  0  0
  1  5  1  0  0  0  0
  2  6  1  0  0  0  0
  3  7  1  0  0  0  0
  3  8  2  0  0  0  0
  4  5  2  0  0  0  0
  4 20  1  0  0  0  0
  5 15  1  0  0  0  0
  6 13  1  0  0  0  0
  6 20  2  0  0  0  0
  7 21  2  0  0  0  0
  7 25  1  0  0  0  0
  8 22  1  0  0  0  0
  8 26  1  0  0  0  0
  9 16  1  0  0  0  0
  9 21  1  0  0  0  0
  9 22  2  0  0  0  0
 10 17  1  0  0  0  0
 10 23  2  0  0  0  0
 10 27  1  0  0  0  0
 11 18  1  0  0  0  0
 11 24  2  0  0  0  0
 11 27  1  0  0  0  0
 12 13  1  0  0  0  0
 12 14  1  0  0  0  0
 13 14  1  0  0  0  0
 14 19  1  0  0  0  0
 18 25  1  0  0  0  0
 19 26  1  0  0  0  0
 23 24  1  0  0  0  0
  1 28  1  0  0  0  0
  2 29  1  0  0  0  0
  3 30  1  0  0  0  0
  4 31  1  0  0  0  0
 12 32  1  0  0  0  0
 12 33  1  0  0  0  0
 13 34  1  0  0  0  0
 14 35  1  0  0  0  0
 15 36  1  0  0  0  0
 15 37  1  0  0  0  0
 15 38  1  0  0  0  0
 16 39  1  0  0  0  0
 16 40  1  0  0  0  0
 16 41  1  0  0  0  0
 17 42  1  0  0  0  0
 17 43  1  0  0  0  0
 17 44  1  0  0  0  0
 18 45  1  0  0  0  0
 18 46  1  0  0  0  0
 19 47  1  0  0  0  0
 19 48  1  0  0  0  0
 25 49  1  0  0  0  0
M  END
> <HYBRID receptor title>
10_LEAD(B) > S9I(B-803)

> <HYBRID receptor filename>
data/docking/pairs/10_lead.oedu

> <HYBRID Chemgauss4 score>
-12.441090

> <HYBRID receptor title>
10_LEAD(B) > S9I(B-803)

> <HYBRID receptor filename>
data/docking/pairs/10_lead.oedu

> <Dock Type>
Hybrid

$$$$
