molecule_1
  -OEChem-08062404073D

 13 13  0     0  0  0  0  0  0999 V2000
   19.7840   15.0088   34.0189 C   0  0  0  0  0  0  0  0  0  0  0  0
   18.7764   15.3411   31.8228 C   0  0  0  0  0  0  0  0  0  0  0  0
   18.4940   13.6140   30.3716 C   0  0  0  0  0  0  0  0  0  0  0  0
   19.3454   14.5017   32.7585 C   0  0  0  0  0  0  0  0  0  0  0  0
   19.4487   13.1766   32.3882 C   0  0  0  0  0  0  0  0  0  0  0  0
   20.1407   15.4211   35.0434 N   0  0  0  0  0  0  0  0  0  0  0  0
   18.3381   14.9294   30.6150 N   0  0  0  0  0  0  0  0  0  0  0  0
   19.0314   12.6962   31.1982 N   0  0  0  0  0  0  0  0  0  0  0  0
   20.0218   12.2571   33.3022 N   0  0  0  0  0  0  0  0  0  0  0  0
   18.6471   16.4029   32.0116 H   0  0  0  0  0  0  0  0  0  0  0  0
   18.1511   13.2566   29.4082 H   0  0  0  0  0  0  0  0  0  0  0  0
   20.3827   12.6000   34.1653 H   0  0  0  0  0  0  0  0  0  0  0  0
   20.1459   11.3106   33.0170 H   0  0  0  0  0  0  0  0  0  0  0  0
  1  4  1  0  0  0  0
  1  6  3  0  0  0  0
  2  4  1  0  0  0  0
  2  7  2  0  0  0  0
  3  7  1  0  0  0  0
  3  8  2  0  0  0  0
  4  5  2  0  0  0  0
  5  8  1  0  0  0  0
  5  9  1  0  0  0  0
  2 10  1  0  0  0  0
  3 11  1  0  0  0  0
  9 12  1  0  0  0  0
  9 13  1  0  0  0  0
M  END
> <HYBRID receptor title>
11_LEAD(A) > Q0H(A-301)

> <HYBRID receptor filename>
data/docking/pairs/11_lead.oedu

> <HYBRID Chemgauss4 score>
-8.434198

> <HYBRID receptor title>
11_LEAD(A) > Q0H(A-301)

> <HYBRID receptor filename>
data/docking/pairs/11_lead.oedu

> <Dock Type>
Hybrid

$$$$
