molecule_1
  -OEChem-08062404073D

 13 13  0     0  0  0  0  0  0999 V2000
   34.6124   14.5752   56.6750 C   0  0  0  0  0  0  0  0  0  0  0  0
   34.7563   12.8216   54.9861 C   0  0  0  0  0  0  0  0  0  0  0  0
   33.9770   13.1393   52.8742 C   0  0  0  0  0  0  0  0  0  0  0  0
   34.3795   14.0982   55.3498 C   0  0  0  0  0  0  0  0  0  0  0  0
   33.7823   14.8501   54.3590 C   0  0  0  0  0  0  0  0  0  0  0  0
   34.8015   14.9629   57.7524 N   0  0  0  0  0  0  0  0  0  0  0  0
   34.5695   12.3079   53.7525 N   0  0  0  0  0  0  0  0  0  0  0  0
   33.5649   14.4008   53.1053 N   0  0  0  0  0  0  0  0  0  0  0  0
   33.3717   16.1725   54.6623 N   0  0  0  0  0  0  0  0  0  0  0  0
   35.2348   12.1452   55.6885 H   0  0  0  0  0  0  0  0  0  0  0  0
   33.8141   12.7517   51.8759 H   0  0  0  0  0  0  0  0  0  0  0  0
   33.4765   16.5056   55.5954 H   0  0  0  0  0  0  0  0  0  0  0  0
   32.8928   16.6986   53.9647 H   0  0  0  0  0  0  0  0  0  0  0  0
  1  4  1  0  0  0  0
  1  6  3  0  0  0  0
  2  4  1  0  0  0  0
  2  7  2  0  0  0  0
  3  7  1  0  0  0  0
  3  8  2  0  0  0  0
  4  5  2  0  0  0  0
  5  8  1  0  0  0  0
  5  9  1  0  0  0  0
  2 10  1  0  0  0  0
  3 11  1  0  0  0  0
  9 12  1  0  0  0  0
  9 13  1  0  0  0  0
M  END
> <HYBRID receptor title>
11_FRAG(A) > Q4H(A-301)

> <HYBRID receptor filename>
data/docking/pairs/11_frag.oedu

> <HYBRID Chemgauss4 score>
-8.339033

> <HYBRID receptor title>
11_FRAG(A) > Q4H(A-301)

> <HYBRID receptor filename>
data/docking/pairs/11_frag.oedu

> <Dock Type>
Hybrid

$$$$
