molecule_1
  -OEChem-08062404083D

 22 23  0     0  0  0  0  0  0999 V2000
   43.6020   59.4141   10.6108 C   0  0  0  0  0  0  0  0  0  0  0  0
   42.5403   59.5054    9.6544 C   0  0  0  0  0  0  0  0  0  0  0  0
   41.2491   60.0527    9.9206 C   0  0  0  0  0  0  0  0  0  0  0  0
   40.4369   59.9921    8.8040 C   0  0  0  0  0  0  0  0  0  0  0  0
   42.6576   59.0607    8.3552 C   0  0  0  0  0  0  0  0  0  0  0  0
   40.7693   60.6092   11.2254 C   0  0  0  0  0  0  0  0  0  0  0  0
   39.0320   60.5034    8.7340 C   0  0  0  0  0  0  0  0  0  0  0  0
   39.4906   61.4442   11.0530 C   0  0  0  0  0  0  0  0  0  0  0  0
   38.4717   60.7389   10.1460 C   0  0  0  0  0  0  0  0  0  0  0  0
   44.4626   59.3399   11.3860 N   0  0  0  0  0  0  0  0  0  0  0  0
   43.7458   58.4904    7.7745 N   0  0  0  0  0  0  0  0  0  0  0  0
   41.2182   59.2989    7.4589 S   0  0  0  0  0  0  0  0  0  0  0  0
   40.5664   59.7744   11.9080 H   0  0  0  0  0  0  0  0  0  0  0  0
   41.5434   61.2309   11.6892 H   0  0  0  0  0  0  0  0  0  0  0  0
   39.0270   61.4505    8.1802 H   0  0  0  0  0  0  0  0  0  0  0  0
   38.3830   59.8022    8.1974 H   0  0  0  0  0  0  0  0  0  0  0  0
   39.0463   61.6390   12.0355 H   0  0  0  0  0  0  0  0  0  0  0  0
   39.7445   62.4187   10.6166 H   0  0  0  0  0  0  0  0  0  0  0  0
   37.5536   61.3334   10.0793 H   0  0  0  0  0  0  0  0  0  0  0  0
   38.1978   59.7764   10.5971 H   0  0  0  0  0  0  0  0  0  0  0  0
   44.6334   58.3875    8.2785 H   0  0  0  0  0  0  0  0  0  0  0  0
   43.7559   58.2379    6.7803 H   0  0  0  0  0  0  0  0  0  0  0  0
  1  2  1  0  0  0  0
  1 10  3  0  0  0  0
  2  3  1  0  0  0  0
  2  5  2  0  0  0  0
  3  4  2  0  0  0  0
  3  6  1  0  0  0  0
  4  7  1  0  0  0  0
  4 12  1  0  0  0  0
  5 11  1  0  0  0  0
  5 12  1  0  0  0  0
  6  8  1  0  0  0  0
  7  9  1  0  0  0  0
  8  9  1  0  0  0  0
  6 13  1  0  0  0  0
  6 14  1  0  0  0  0
  7 15  1  0  0  0  0
  7 16  1  0  0  0  0
  8 17  1  0  0  0  0
  8 18  1  0  0  0  0
  9 19  1  0  0  0  0
  9 20  1  0  0  0  0
 11 21  1  0  0  0  0
 11 22  1  0  0  0  0
M  END
> <HYBRID receptor title>
13_FRAG(A) > LX6(A-204)

> <HYBRID receptor filename>
data/docking/pairs/13_frag.oedu

> <HYBRID Chemgauss4 score>
-9.840767

> <HYBRID receptor title>
13_FRAG(A) > LX6(A-204)

> <HYBRID receptor filename>
data/docking/pairs/13_frag.oedu

> <Dock Type>
Hybrid

$$$$
