molecule_1
  -OEChem-08062404093D

 30 32  0     0  0  0  0  0  0999 V2000
   16.9319   37.0433   -3.6606 C   0  0  0  0  0  0  0  0  0  0  0  0
   16.3871   39.4835   -2.8701 C   0  0  0  0  0  0  0  0  0  0  0  0
   16.8316   37.0076   -6.0572 C   0  0  0  0  0  0  0  0  0  0  0  0
   16.6048   38.4020   -3.7467 C   0  0  0  0  0  0  0  0  0  0  0  0
   17.0456   36.3367   -4.8584 C   0  0  0  0  0  0  0  0  0  0  0  0
   16.4184   38.9466   -5.0075 C   0  0  0  0  0  0  0  0  0  0  0  0
   17.3808   34.9229   -4.8501 C   0  0  0  0  0  0  0  0  0  0  0  0
   14.2462   42.6155   -7.1626 C   0  0  0  0  0  0  0  0  0  0  0  0
   15.1513   41.8669   -8.1356 C   0  0  0  0  0  0  0  0  0  0  0  0
   14.4272   41.9367   -5.8099 C   0  0  0  0  0  0  0  0  0  0  0  0
   15.8382   40.7772   -7.3199 C   0  0  0  0  0  0  0  0  0  0  0  0
   15.8210   41.2967   -5.8753 C   0  0  0  0  0  0  0  0  0  0  0  0
   16.5142   38.3176   -6.1924 N   0  0  0  0  0  0  0  0  0  0  0  0
   16.0884   40.6180   -3.5121 N   0  0  0  0  0  0  0  0  0  0  0  0
   16.1145   40.2609   -4.8083 N   0  0  0  0  0  0  0  0  0  0  0  0
   17.5051   34.2089   -5.8519 O   0  0  0  0  0  0  0  0  0  0  0  0
   17.5533   34.4346   -3.5908 O   0  0  0  0  0  0  0  0  0  0  0  0
   17.0904   36.5617   -2.7011 H   0  0  0  0  0  0  0  0  0  0  0  0
   16.4342   39.4944   -1.7904 H   0  0  0  0  0  0  0  0  0  0  0  0
   16.9132   36.4777   -7.0039 H   0  0  0  0  0  0  0  0  0  0  0  0
   14.4824   43.6926   -7.1221 H   0  0  0  0  0  0  0  0  0  0  0  0
   13.1939   42.5298   -7.4888 H   0  0  0  0  0  0  0  0  0  0  0  0
   14.5863   41.4498   -8.9891 H   0  0  0  0  0  0  0  0  0  0  0  0
   15.9059   42.5573   -8.5595 H   0  0  0  0  0  0  0  0  0  0  0  0
   14.4172   42.6974   -5.0229 H   0  0  0  0  0  0  0  0  0  0  0  0
   13.6212   41.2293   -5.6038 H   0  0  0  0  0  0  0  0  0  0  0  0
   15.2797   39.8366   -7.4147 H   0  0  0  0  0  0  0  0  0  0  0  0
   16.8576   40.5903   -7.6750 H   0  0  0  0  0  0  0  0  0  0  0  0
   16.5958   42.0748   -5.7345 H   0  0  0  0  0  0  0  0  0  0  0  0
   17.7806   33.4801   -3.5740 H   0  0  0  0  0  0  0  0  0  0  0  0
  1  4  1  0  0  0  0
  1  5  2  0  0  0  0
  2  4  1  0  0  0  0
  2 14  2  0  0  0  0
  3  5  1  0  0  0  0
  3 13  2  0  0  0  0
  4  6  2  0  0  0  0
  5  7  1  0  0  0  0
  6 13  1  0  0  0  0
  6 15  1  0  0  0  0
  7 16  2  0  0  0  0
  7 17  1  0  0  0  0
  8  9  1  0  0  0  0
  8 10  1  0  0  0  0
  9 11  1  0  0  0  0
 10 12  1  0  0  0  0
 11 12  1  0  0  0  0
 12 15  1  0  0  0  0
 14 15  1  0  0  0  0
  1 18  1  0  0  0  0
  2 19  1  0  0  0  0
  3 20  1  0  0  0  0
  8 21  1  0  0  0  0
  8 22  1  0  0  0  0
  9 23  1  0  0  0  0
  9 24  1  0  0  0  0
 10 25  1  0  0  0  0
 10 26  1  0  0  0  0
 11 27  1  0  0  0  0
 11 28  1  0  0  0  0
 12 29  1  0  0  0  0
 17 30  1  0  0  0  0
M  END
> <HYBRID receptor title>
15_LEAD(A) > JJU(A-501)

> <HYBRID receptor filename>
data/docking/pairs/15_lead.oedu

> <HYBRID Chemgauss4 score>
-9.867610

> <HYBRID receptor title>
15_LEAD(A) > JJU(A-501)

> <HYBRID receptor filename>
data/docking/pairs/15_lead.oedu

> <Dock Type>
Hybrid

$$$$
