molecule_1
  -OEChem-08062404093D

 30 32  0     0  0  0  0  0  0999 V2000
   -6.9471   -3.4278   10.4100 C   0  0  0  0  0  0  0  0  0  0  0  0
   -8.7207   -5.3167   10.0067 C   0  0  0  0  0  0  0  0  0  0  0  0
   -4.9555   -4.4594   11.2611 C   0  0  0  0  0  0  0  0  0  0  0  0
   -7.5009   -4.7132   10.3718 C   0  0  0  0  0  0  0  0  0  0  0  0
   -5.6350   -3.3111   10.8702 C   0  0  0  0  0  0  0  0  0  0  0  0
   -6.7120   -5.7731   10.7908 C   0  0  0  0  0  0  0  0  0  0  0  0
   -4.9924   -2.0098   10.9401 C   0  0  0  0  0  0  0  0  0  0  0  0
   -8.1585  -10.3437   10.1468 C   0  0  0  0  0  0  0  0  0  0  0  0
   -8.0825  -10.4081   11.6621 C   0  0  0  0  0  0  0  0  0  0  0  0
   -7.1300   -9.2802    9.7773 C   0  0  0  0  0  0  0  0  0  0  0  0
   -7.9674   -8.9456   12.0624 C   0  0  0  0  0  0  0  0  0  0  0  0
   -7.0779   -8.3123   10.9778 C   0  0  0  0  0  0  0  0  0  0  0  0
   -5.4463   -5.7219   11.2424 N   0  0  0  0  0  0  0  0  0  0  0  0
   -8.7131   -6.6432   10.1766 N   0  0  0  0  0  0  0  0  0  0  0  0
   -7.4807   -6.8911   10.6540 N   0  0  0  0  0  0  0  0  0  0  0  0
   -3.8385   -1.7994   11.3313 O   0  0  0  0  0  0  0  0  0  0  0  0
   -5.8061   -1.0025   10.5192 O   0  0  0  0  0  0  0  0  0  0  0  0
   -7.5163   -2.5596   10.0939 H   0  0  0  0  0  0  0  0  0  0  0  0
   -9.6153   -4.8471    9.6229 H   0  0  0  0  0  0  0  0  0  0  0  0
   -3.9322   -4.3936   11.6248 H   0  0  0  0  0  0  0  0  0  0  0  0
   -7.9460  -11.3078    9.6755 H   0  0  0  0  0  0  0  0  0  0  0  0
   -9.1587  -10.0227    9.8322 H   0  0  0  0  0  0  0  0  0  0  0  0
   -8.9586  -10.8912   12.1037 H   0  0  0  0  0  0  0  0  0  0  0  0
   -7.1890  -10.9603   11.9762 H   0  0  0  0  0  0  0  0  0  0  0  0
   -6.1478   -9.7549    9.6592 H   0  0  0  0  0  0  0  0  0  0  0  0
   -7.3769   -8.7934    8.8278 H   0  0  0  0  0  0  0  0  0  0  0  0
   -8.9631   -8.4847   12.0806 H   0  0  0  0  0  0  0  0  0  0  0  0
   -7.5335   -8.8314   13.0612 H   0  0  0  0  0  0  0  0  0  0  0  0
   -6.0324   -8.2125   11.3422 H   0  0  0  0  0  0  0  0  0  0  0  0
   -5.3812   -0.1188   10.5620 H   0  0  0  0  0  0  0  0  0  0  0  0
  1  4  1  0  0  0  0
  1  5  2  0  0  0  0
  2  4  1  0  0  0  0
  2 14  2  0  0  0  0
  3  5  1  0  0  0  0
  3 13  2  0  0  0  0
  4  6  2  0  0  0  0
  5  7  1  0  0  0  0
  6 13  1  0  0  0  0
  6 15  1  0  0  0  0
  7 16  2  0  0  0  0
  7 17  1  0  0  0  0
  8  9  1  0  0  0  0
  8 10  1  0  0  0  0
  9 11  1  0  0  0  0
 10 12  1  0  0  0  0
 11 12  1  0  0  0  0
 12 15  1  0  0  0  0
 14 15  1  0  0  0  0
  1 18  1  0  0  0  0
  2 19  1  0  0  0  0
  3 20  1  0  0  0  0
  8 21  1  0  0  0  0
  8 22  1  0  0  0  0
  9 23  1  0  0  0  0
  9 24  1  0  0  0  0
 10 25  1  0  0  0  0
 10 26  1  0  0  0  0
 11 27  1  0  0  0  0
 11 28  1  0  0  0  0
 12 29  1  0  0  0  0
 17 30  1  0  0  0  0
M  END
> <HYBRID receptor title>
15_FRAG(A) > JIK(A-501)

> <HYBRID receptor filename>
data/docking/pairs/15_frag.oedu

> <HYBRID Chemgauss4 score>
-10.041243

> <HYBRID receptor title>
15_FRAG(A) > JIK(A-501)

> <HYBRID receptor filename>
data/docking/pairs/15_frag.oedu

> <Dock Type>
Hybrid

$$$$
