molecule_1
  -OEChem-08062404093D

 37 40  0     0  0  0  0  0  0999 V2000
   15.8982   41.1233   -8.2660 C   0  0  0  0  0  0  0  0  0  0  0  0
   14.2919   42.3385   -6.9316 C   0  0  0  0  0  0  0  0  0  0  0  0
   16.2378   40.3525   -7.1540 C   0  0  0  0  0  0  0  0  0  0  0  0
   14.6314   41.5678   -5.8197 C   0  0  0  0  0  0  0  0  0  0  0  0
   17.1012   36.7500   -3.2485 C   0  0  0  0  0  0  0  0  0  0  0  0
   17.0267   36.4930   -5.6301 C   0  0  0  0  0  0  0  0  0  0  0  0
   16.2106   39.7193   -1.3769 C   0  0  0  0  0  0  0  0  0  0  0  0
   16.6382   38.0606   -3.4364 C   0  0  0  0  0  0  0  0  0  0  0  0
   16.3185   39.1591   -2.6023 C   0  0  0  0  0  0  0  0  0  0  0  0
   17.2960   35.9581   -4.3774 C   0  0  0  0  0  0  0  0  0  0  0  0
   14.9250   42.1162   -8.1546 C   0  0  0  0  0  0  0  0  0  0  0  0
   15.6046   40.5748   -5.9311 C   0  0  0  0  0  0  0  0  0  0  0  0
   16.3984   38.4904   -4.7808 C   0  0  0  0  0  0  0  0  0  0  0  0
   15.9238   40.1296   -3.5000 C   0  0  0  0  0  0  0  0  0  0  0  0
   17.7737   34.5923   -4.2442 C   0  0  0  0  0  0  0  0  0  0  0  0
   15.4638   42.0344   -0.6712 C   0  0  0  0  0  0  0  0  0  0  0  0
   14.5607   42.9397   -9.3434 C   0  0  0  0  0  0  0  0  0  0  0  0
   16.5793   37.7429   -5.8893 N   0  0  0  0  0  0  0  0  0  0  0  0
   15.5682   41.2689   -2.9882 N   0  0  0  0  0  0  0  0  0  0  0  0
   15.7489   41.0108   -1.6481 N   0  0  0  0  0  0  0  0  0  0  0  0
   15.9434   39.8072   -4.8241 N   0  0  0  0  0  0  0  0  0  0  0  0
   17.9787   33.8094   -5.1790 O   0  0  0  0  0  0  0  0  0  0  0  0
   17.9847   34.2372   -2.9468 O   0  0  0  0  0  0  0  0  0  0  0  0
   15.2572   42.6142  -10.4722 F   0  0  0  0  0  0  0  0  0  0  0  0
   14.7840   44.2720   -9.1476 F   0  0  0  0  0  0  0  0  0  0  0  0
   13.2445   42.8365   -9.6942 F   0  0  0  0  0  0  0  0  0  0  0  0
   16.3952   40.9428   -9.2154 H   0  0  0  0  0  0  0  0  0  0  0  0
   13.5336   43.1112   -6.8363 H   0  0  0  0  0  0  0  0  0  0  0  0
   16.9976   39.5813   -7.2553 H   0  0  0  0  0  0  0  0  0  0  0  0
   14.1300   41.7520   -4.8727 H   0  0  0  0  0  0  0  0  0  0  0  0
   17.3008   36.3681   -2.2517 H   0  0  0  0  0  0  0  0  0  0  0  0
   17.1728   35.8891   -6.5235 H   0  0  0  0  0  0  0  0  0  0  0  0
   16.3955   39.3827   -0.3667 H   0  0  0  0  0  0  0  0  0  0  0  0
   16.3521   42.6433   -0.4720 H   0  0  0  0  0  0  0  0  0  0  0  0
   15.1321   41.5759    0.2656 H   0  0  0  0  0  0  0  0  0  0  0  0
   14.6817   42.7110   -1.0310 H   0  0  0  0  0  0  0  0  0  0  0  0
   18.3080   33.3161   -2.8458 H   0  0  0  0  0  0  0  0  0  0  0  0
  1  3  2  0  0  0  0
  1 11  1  0  0  0  0
  2  4  1  0  0  0  0
  2 11  2  0  0  0  0
  3 12  1  0  0  0  0
  4 12  2  0  0  0  0
  5  8  1  0  0  0  0
  5 10  2  0  0  0  0
  6 10  1  0  0  0  0
  6 18  2  0  0  0  0
  7  9  2  0  0  0  0
  7 20  1  0  0  0  0
  8  9  1  0  0  0  0
  8 13  2  0  0  0  0
  9 14  1  0  0  0  0
 10 15  1  0  0  0  0
 11 17  1  0  0  0  0
 12 21  1  0  0  0  0
 13 18  1  0  0  0  0
 13 21  1  0  0  0  0
 14 19  2  0  0  0  0
 14 21  1  0  0  0  0
 15 22  2  0  0  0  0
 15 23  1  0  0  0  0
 16 20  1  0  0  0  0
 17 24  1  0  0  0  0
 17 25  1  0  0  0  0
 17 26  1  0  0  0  0
 19 20  1  0  0  0  0
  1 27  1  0  0  0  0
  2 28  1  0  0  0  0
  3 29  1  0  0  0  0
  4 30  1  0  0  0  0
  5 31  1  0  0  0  0
  6 32  1  0  0  0  0
  7 33  1  0  0  0  0
 16 34  1  0  0  0  0
 16 35  1  0  0  0  0
 16 36  1  0  0  0  0
 23 37  1  0  0  0  0
M  END
> <HYBRID receptor title>
15_LEAD(A) > JJU(A-501)

> <HYBRID receptor filename>
data/docking/pairs/15_lead.oedu

> <HYBRID Chemgauss4 score>
-15.986399

> <HYBRID receptor title>
15_LEAD(A) > JJU(A-501)

> <HYBRID receptor filename>
data/docking/pairs/15_lead.oedu

> <Dock Type>
Hybrid

$$$$
