molecule_1
  -OEChem-08062404033D

 17 17  0     0  0  0  0  0  0999 V2000
   15.7283  -24.5432  -25.8797 C   0  0  0  0  0  0  0  0  0  0  0  0
   16.8065  -23.4615  -24.0292 C   0  0  0  0  0  0  0  0  0  0  0  0
   16.0481  -23.3464  -25.1279 C   0  0  0  0  0  0  0  0  0  0  0  0
   16.1630  -25.7622  -25.5164 C   0  0  0  0  0  0  0  0  0  0  0  0
   17.0141  -25.8709  -24.2790 C   0  0  0  0  0  0  0  0  0  0  0  0
   15.5095  -22.0428  -25.6252 C   0  0  0  0  0  0  0  0  0  0  0  0
   17.2744  -24.6819  -23.6175 N   0  0  0  0  0  0  0  0  0  0  0  0
   15.8981  -26.9239  -26.1785 N   0  0  0  0  0  0  0  0  0  0  0  0
   17.4414  -26.9586  -23.8964 O   0  0  0  0  0  0  0  0  0  0  0  0
   14.7802  -22.2159  -26.7477 F   0  0  0  0  0  0  0  0  0  0  0  0
   14.7150  -21.4583  -24.7042 F   0  0  0  0  0  0  0  0  0  0  0  0
   16.5091  -21.1823  -25.9119 F   0  0  0  0  0  0  0  0  0  0  0  0
   15.1124  -24.4265  -26.7673 H   0  0  0  0  0  0  0  0  0  0  0  0
   17.0905  -22.6178  -23.4125 H   0  0  0  0  0  0  0  0  0  0  0  0
   17.8455  -24.7167  -22.7781 H   0  0  0  0  0  0  0  0  0  0  0  0
   15.3374  -26.8880  -27.0025 H   0  0  0  0  0  0  0  0  0  0  0  0
   16.2725  -27.7753  -25.8197 H   0  0  0  0  0  0  0  0  0  0  0  0
  1  3  1  0  0  0  0
  1  4  2  0  0  0  0
  2  3  2  0  0  0  0
  2  7  1  0  0  0  0
  3  6  1  0  0  0  0
  4  5  1  0  0  0  0
  4  8  1  0  0  0  0
  5  7  1  0  0  0  0
  5  9  2  0  0  0  0
  6 10  1  0  0  0  0
  6 11  1  0  0  0  0
  6 12  1  0  0  0  0
  1 13  1  0  0  0  0
  2 14  1  0  0  0  0
  7 15  1  0  0  0  0
  8 16  1  0  0  0  0
  8 17  1  0  0  0  0
M  END
> <HYBRID receptor title>
7PIH(AB)altB > 7QW(A-401)

> <HYBRID receptor filename>
data/docking/pairs/1_lead.oedu

> <HYBRID Chemgauss4 score>
-7.410098

> <HYBRID receptor title>
7PIH(AB)altB > 7QW(A-401)

> <HYBRID receptor filename>
data/docking/pairs/1_lead.oedu

> <Dock Type>
Hybrid

$$$$
