molecule_1
  -OEChem-08062404113D

 17 18  0     0  0  0  0  0  0999 V2000
  -15.3001    8.5739   22.1686 C   0  0  0  0  0  0  0  0  0  0  0  0
  -15.2219    9.8678   21.6191 C   0  0  0  0  0  0  0  0  0  0  0  0
  -15.0752    8.3592   23.5321 C   0  0  0  0  0  0  0  0  0  0  0  0
  -14.9197   10.9686   22.4222 C   0  0  0  0  0  0  0  0  0  0  0  0
  -14.7759    9.4541   24.3197 C   0  0  0  0  0  0  0  0  0  0  0  0
  -14.7028   10.7285   23.7637 C   0  0  0  0  0  0  0  0  0  0  0  0
  -14.2436   11.0285   25.9976 C   0  0  0  0  0  0  0  0  0  0  0  0
  -14.4911    9.5308   25.7857 C   0  0  0  0  0  0  0  0  0  0  0  0
  -14.3894   11.6530   24.7539 N   0  0  0  0  0  0  0  0  0  0  0  0
  -13.9712   11.5555   27.0651 O   0  0  0  0  0  0  0  0  0  0  0  0
  -15.5377    7.7323   21.5233 H   0  0  0  0  0  0  0  0  0  0  0  0
  -15.4004   10.0087   20.5564 H   0  0  0  0  0  0  0  0  0  0  0  0
  -15.1355    7.3615   23.9525 H   0  0  0  0  0  0  0  0  0  0  0  0
  -14.8595   11.9657   22.0017 H   0  0  0  0  0  0  0  0  0  0  0  0
  -15.3536    9.2152   26.3782 H   0  0  0  0  0  0  0  0  0  0  0  0
  -13.5904    8.9704   26.0486 H   0  0  0  0  0  0  0  0  0  0  0  0
  -14.2834   12.6460   24.5837 H   0  0  0  0  0  0  0  0  0  0  0  0
  1  2  1  0  0  0  0
  1  3  2  0  0  0  0
  2  4  2  0  0  0  0
  3  5  1  0  0  0  0
  4  6  1  0  0  0  0
  5  6  2  0  0  0  0
  5  8  1  0  0  0  0
  6  9  1  0  0  0  0
  7  8  1  0  0  0  0
  7  9  1  0  0  0  0
  7 10  2  0  0  0  0
  1 11  1  0  0  0  0
  2 12  1  0  0  0  0
  3 13  1  0  0  0  0
  4 14  1  0  0  0  0
  8 15  1  0  0  0  0
  8 16  1  0  0  0  0
  9 17  1  0  0  0  0
M  END
> <HYBRID receptor title>
22_FRAG(AB) > W6P(A-503)

> <HYBRID receptor filename>
data/docking/pairs/22_frag.oedu

> <HYBRID Chemgauss4 score>
-8.074178

> <HYBRID receptor title>
22_FRAG(AB) > W6P(A-503)

> <HYBRID receptor filename>
data/docking/pairs/22_frag.oedu

> <Dock Type>
Hybrid

$$$$
