molecule_1
  -OEChem-08062404123D

 43 46  0     1  0  0  0  0  0999 V2000
  -22.0149   -4.9234   -4.2586 C   0  0  0  0  0  0  0  0  0  0  0  0
  -23.2157   -5.4198   -3.7562 C   0  0  0  0  0  0  0  0  0  0  0  0
  -20.9153   -4.7606   -3.4154 C   0  0  0  0  0  0  0  0  0  0  0  0
  -23.3206   -5.7561   -2.4067 C   0  0  0  0  0  0  0  0  0  0  0  0
  -19.9191   -4.9426   -1.1829 C   0  0  0  0  0  0  0  0  0  0  0  0
  -21.0038   -5.0941   -2.0540 C   0  0  0  0  0  0  0  0  0  0  0  0
  -22.2203   -5.5966   -1.5483 C   0  0  0  0  0  0  0  0  0  0  0  0
  -20.0854   -5.2945    0.1486 C   0  0  0  0  0  0  0  0  0  0  0  0
  -22.2704   -5.9169   -0.1904 C   0  0  0  0  0  0  0  0  0  0  0  0
  -18.9836   -5.1522    1.0846 C   0  0  0  0  0  0  0  0  0  0  0  0
  -17.9628   -5.2570    3.0064 C   0  0  0  0  0  0  0  0  0  0  0  0
  -25.8264  -12.1871    1.6164 C   0  0  0  0  0  0  0  0  0  0  0  0
  -25.7170  -10.8618    1.7304 C   0  0  0  0  0  0  0  0  0  0  0  0
  -24.3704  -10.2585    1.7735 C   0  0  0  0  0  0  0  0  0  0  0  0
  -24.7972   -6.6099    2.3416 C   0  0  0  0  0  0  0  0  0  0  0  0
  -25.4312   -7.9493    1.9852 C   0  0  0  0  0  0  0  0  0  0  0  0
  -23.0347   -8.1774    1.9338 C   0  0  0  0  0  0  0  0  0  0  0  0
  -23.3954   -6.7111    1.7489 C   0  0  1  0  0  0  0  0  0  0  0  0
  -21.2342   -5.7780    0.6675 N   0  0  0  0  0  0  0  0  0  0  0  0
  -17.7948   -4.7097    0.8069 N   0  0  0  0  0  0  0  0  0  0  0  0
  -19.1663   -5.5024    2.3845 N   0  0  0  0  0  0  0  0  0  0  0  0
  -17.1292   -4.7637    1.9974 N   0  0  0  0  0  0  0  0  0  0  0  0
  -24.3111   -8.8829    1.8922 N   0  0  0  0  0  0  0  0  0  0  0  0
  -17.6788   -5.4300    4.1818 O   0  0  0  0  0  0  0  0  0  0  0  0
  -23.3878  -10.9966    1.6989 O   0  0  0  0  0  0  0  0  0  0  0  0
  -23.4251   -6.4092    0.3592 O   0  0  0  0  0  0  0  0  0  0  0  0
  -21.9343   -4.6620   -5.3098 H   0  0  0  0  0  0  0  0  0  0  0  0
  -24.0698   -5.5452   -4.4152 H   0  0  0  0  0  0  0  0  0  0  0  0
  -19.9881   -4.3711   -3.8302 H   0  0  0  0  0  0  0  0  0  0  0  0
  -24.2694   -6.1415   -2.0412 H   0  0  0  0  0  0  0  0  0  0  0  0
  -18.9667   -4.5583   -1.5383 H   0  0  0  0  0  0  0  0  0  0  0  0
  -26.7878  -12.6885    1.5796 H   0  0  0  0  0  0  0  0  0  0  0  0
  -24.9352  -12.8030    1.5566 H   0  0  0  0  0  0  0  0  0  0  0  0
  -26.5819  -10.2136    1.7929 H   0  0  0  0  0  0  0  0  0  0  0  0
  -25.3747   -5.7740    1.9358 H   0  0  0  0  0  0  0  0  0  0  0  0
  -24.7370   -6.5103    3.4317 H   0  0  0  0  0  0  0  0  0  0  0  0
  -26.1533   -8.2781    2.7381 H   0  0  0  0  0  0  0  0  0  0  0  0
  -25.9217   -7.9131    1.0063 H   0  0  0  0  0  0  0  0  0  0  0  0
  -22.3642   -8.5713    1.1639 H   0  0  0  0  0  0  0  0  0  0  0  0
  -22.6001   -8.3605    2.9227 H   0  0  0  0  0  0  0  0  0  0  0  0
  -22.6856   -6.0371    2.2368 H   0  0  0  0  0  0  0  0  0  0  0  0
  -20.0057   -5.8683    2.8182 H   0  0  0  0  0  0  0  0  0  0  0  0
  -16.1655   -4.4853    2.1314 H   0  0  0  0  0  0  0  0  0  0  0  0
  1  2  1  0  0  0  0
  1  3  2  0  0  0  0
  2  4  2  0  0  0  0
  3  6  1  0  0  0  0
  4  7  1  0  0  0  0
  5  6  2  0  0  0  0
  5  8  1  0  0  0  0
  6  7  1  0  0  0  0
  7  9  2  0  0  0  0
  8 10  1  0  0  0  0
  8 19  2  0  0  0  0
  9 19  1  0  0  0  0
  9 26  1  0  0  0  0
 10 20  2  0  0  0  0
 10 21  1  0  0  0  0
 11 21  1  0  0  0  0
 11 22  1  0  0  0  0
 11 24  2  0  0  0  0
 12 13  2  0  0  0  0
 13 14  1  0  0  0  0
 14 23  1  0  0  0  0
 14 25  2  0  0  0  0
 15 16  1  0  0  0  0
 15 18  1  0  0  0  0
 16 23  1  0  0  0  0
 17 18  1  0  0  0  0
 17 23  1  0  0  0  0
 18 26  1  0  0  0  0
 20 22  1  0  0  0  0
  1 27  1  0  0  0  0
  2 28  1  0  0  0  0
  3 29  1  0  0  0  0
  4 30  1  0  0  0  0
  5 31  1  0  0  0  0
 12 32  1  0  0  0  0
 12 33  1  0  0  0  0
 13 34  1  0  0  0  0
 15 35  1  0  0  0  0
 15 36  1  0  0  0  0
 16 37  1  0  0  0  0
 16 38  1  0  0  0  0
 17 39  1  0  0  0  0
 17 40  1  0  0  0  0
 18 41  1  0  0  0  0
 21 42  1  0  0  0  0
 22 43  1  0  0  0  0
M  END
> <HYBRID receptor title>
23_LEAD(A) > 0CI(A-702)

> <HYBRID receptor filename>
data/docking/pairs/23_lead.oedu

> <HYBRID Chemgauss4 score>
-11.696818

> <HYBRID receptor title>
23_LEAD(A) > 0CI(A-702)

> <HYBRID receptor filename>
data/docking/pairs/23_lead.oedu

> <Dock Type>
Hybrid

$$$$
