molecule_1
  -OEChem-08062404113D

 43 46  0     1  0  0  0  0  0999 V2000
   21.6049    5.0293   -3.9633 C   0  0  0  0  0  0  0  0  0  0  0  0
   22.8041    5.5284   -3.4596 C   0  0  0  0  0  0  0  0  0  0  0  0
   20.5044    4.8653   -3.1216 C   0  0  0  0  0  0  0  0  0  0  0  0
   22.9064    5.8660   -2.1103 C   0  0  0  0  0  0  0  0  0  0  0  0
   19.5046    5.0473   -0.8907 C   0  0  0  0  0  0  0  0  0  0  0  0
   20.5903    5.2000   -1.7604 C   0  0  0  0  0  0  0  0  0  0  0  0
   21.8052    5.7051   -1.2534 C   0  0  0  0  0  0  0  0  0  0  0  0
   19.6684    5.4006    0.4407 C   0  0  0  0  0  0  0  0  0  0  0  0
   21.8527    6.0267    0.1044 C   0  0  0  0  0  0  0  0  0  0  0  0
   18.5655    5.2570    1.3754 C   0  0  0  0  0  0  0  0  0  0  0  0
   17.5417    5.3616    3.2956 C   0  0  0  0  0  0  0  0  0  0  0  0
   24.6581   11.7046    3.9925 C   0  0  0  0  0  0  0  0  0  0  0  0
   24.7935   10.4616    3.5256 C   0  0  0  0  0  0  0  0  0  0  0  0
   23.6070    9.5845    3.4779 C   0  0  0  0  0  0  0  0  0  0  0  0
   24.7364    6.2372    2.3215 C   0  0  0  0  0  0  0  0  0  0  0  0
   25.0485    7.7172    2.5094 C   0  0  0  0  0  0  0  0  0  0  0  0
   22.6971    7.3576    2.8833 C   0  0  0  0  0  0  0  0  0  0  0  0
   23.2400    6.2240    2.0263 C   0  0  1  0  0  0  0  0  0  0  0  0
   20.8155    5.8866    0.9609 N   0  0  0  0  0  0  0  0  0  0  0  0
   17.3779    4.8122    1.0962 N   0  0  0  0  0  0  0  0  0  0  0  0
   18.7457    5.6087    2.6751 N   0  0  0  0  0  0  0  0  0  0  0  0
   16.7105    4.8660    2.2857 N   0  0  0  0  0  0  0  0  0  0  0  0
   23.7999    8.3073    2.9864 N   0  0  0  0  0  0  0  0  0  0  0  0
   17.2558    5.5350    4.4704 O   0  0  0  0  0  0  0  0  0  0  0  0
   22.5265   10.0279    3.8671 O   0  0  0  0  0  0  0  0  0  0  0  0
   23.0057    6.5216    0.6552 O   0  0  0  0  0  0  0  0  0  0  0  0
   21.5263    4.7669   -5.0145 H   0  0  0  0  0  0  0  0  0  0  0  0
   23.6589    5.6548   -4.1175 H   0  0  0  0  0  0  0  0  0  0  0  0
   19.5785    4.4737   -3.5374 H   0  0  0  0  0  0  0  0  0  0  0  0
   23.8540    6.2534   -1.7437 H   0  0  0  0  0  0  0  0  0  0  0  0
   18.5535    4.6610   -1.2471 H   0  0  0  0  0  0  0  0  0  0  0  0
   25.4923   12.3956    4.0522 H   0  0  0  0  0  0  0  0  0  0  0  0
   23.6884   12.0563    4.3288 H   0  0  0  0  0  0  0  0  0  0  0  0
   25.7437   10.0739    3.1809 H   0  0  0  0  0  0  0  0  0  0  0  0
   25.3359    5.8017    1.5167 H   0  0  0  0  0  0  0  0  0  0  0  0
   24.9394    5.6976    3.2540 H   0  0  0  0  0  0  0  0  0  0  0  0
   25.8579    7.8811    3.2266 H   0  0  0  0  0  0  0  0  0  0  0  0
   25.3060    8.1967    1.5587 H   0  0  0  0  0  0  0  0  0  0  0  0
   21.8161    7.8515    2.4619 H   0  0  0  0  0  0  0  0  0  0  0  0
   22.4717    7.0174    3.9000 H   0  0  0  0  0  0  0  0  0  0  0  0
   22.7768    5.2606    2.2579 H   0  0  0  0  0  0  0  0  0  0  0  0
   19.5838    5.9765    3.1098 H   0  0  0  0  0  0  0  0  0  0  0  0
   15.7471    4.5859    2.4186 H   0  0  0  0  0  0  0  0  0  0  0  0
  1  2  1  0  0  0  0
  1  3  2  0  0  0  0
  2  4  2  0  0  0  0
  3  6  1  0  0  0  0
  4  7  1  0  0  0  0
  5  6  2  0  0  0  0
  5  8  1  0  0  0  0
  6  7  1  0  0  0  0
  7  9  2  0  0  0  0
  8 10  1  0  0  0  0
  8 19  2  0  0  0  0
  9 19  1  0  0  0  0
  9 26  1  0  0  0  0
 10 20  2  0  0  0  0
 10 21  1  0  0  0  0
 11 21  1  0  0  0  0
 11 22  1  0  0  0  0
 11 24  2  0  0  0  0
 12 13  2  0  0  0  0
 13 14  1  0  0  0  0
 14 23  1  0  0  0  0
 14 25  2  0  0  0  0
 15 16  1  0  0  0  0
 15 18  1  0  0  0  0
 16 23  1  0  0  0  0
 17 18  1  0  0  0  0
 17 23  1  0  0  0  0
 18 26  1  0  0  0  0
 20 22  1  0  0  0  0
  1 27  1  0  0  0  0
  2 28  1  0  0  0  0
  3 29  1  0  0  0  0
  4 30  1  0  0  0  0
  5 31  1  0  0  0  0
 12 32  1  0  0  0  0
 12 33  1  0  0  0  0
 13 34  1  0  0  0  0
 15 35  1  0  0  0  0
 15 36  1  0  0  0  0
 16 37  1  0  0  0  0
 16 38  1  0  0  0  0
 17 39  1  0  0  0  0
 17 40  1  0  0  0  0
 18 41  1  0  0  0  0
 21 42  1  0  0  0  0
 22 43  1  0  0  0  0
M  END
> <HYBRID receptor title>
23_FRAG(A) > 0UW(A-704)

> <HYBRID receptor filename>
data/docking/pairs/23_frag.oedu

> <HYBRID Chemgauss4 score>
-13.918392

> <HYBRID receptor title>
23_FRAG(A) > 0UW(A-704)

> <HYBRID receptor filename>
data/docking/pairs/23_frag.oedu

> <Dock Type>
Hybrid

$$$$
