molecule_1
  -OEChem-08062404123D

 34 35  0     0  0  0  0  0  0999 V2000
    0.5236   -7.9738  -17.5361 C   0  0  0  0  0  0  0  0  0  0  0  0
    1.8929   -7.8067  -17.5021 C   0  0  0  0  0  0  0  0  0  0  0  0
    0.0135   -8.9074  -16.6575 C   0  0  0  0  0  0  0  0  0  0  0  0
    2.0939   -9.3751  -15.8685 C   0  0  0  0  0  0  0  0  0  0  0  0
   -1.9055  -10.4496  -16.9460 C   0  0  0  0  0  0  0  0  0  0  0  0
   -2.1876   -8.2914  -15.7466 C   0  0  0  0  0  0  0  0  0  0  0  0
   -3.3736  -10.3413  -17.3423 C   0  0  0  0  0  0  0  0  0  0  0  0
   -3.6402   -8.3043  -16.2087 C   0  0  0  0  0  0  0  0  0  0  0  0
    2.5585   -6.8220  -18.4062 C   0  0  0  0  0  0  0  0  0  0  0  0
   -0.2758   -7.7132  -19.8978 C   0  0  0  0  0  0  0  0  0  0  0  0
   -0.3391   -7.1913  -18.4636 C   0  0  0  0  0  0  0  0  0  0  0  0
    2.7113   -8.4932  -16.6778 N   0  0  0  0  0  0  0  0  0  0  0  0
    0.7725   -9.6291  -15.8066 N   0  0  0  0  0  0  0  0  0  0  0  0
   -1.3686   -9.1188  -16.6429 N   0  0  0  0  0  0  0  0  0  0  0  0
    2.9200  -10.1125  -14.9926 N   0  0  0  0  0  0  0  0  0  0  0  0
   -4.1146   -9.6423  -16.3450 O   0  0  0  0  0  0  0  0  0  0  0  0
   -1.8152  -11.0828  -16.0541 H   0  0  0  0  0  0  0  0  0  0  0  0
   -1.3413  -10.9203  -17.7597 H   0  0  0  0  0  0  0  0  0  0  0  0
   -1.8188   -7.2592  -15.7248 H   0  0  0  0  0  0  0  0  0  0  0  0
   -2.1253   -8.6999  -14.7297 H   0  0  0  0  0  0  0  0  0  0  0  0
   -3.4913   -9.8397  -18.3105 H   0  0  0  0  0  0  0  0  0  0  0  0
   -3.8054  -11.3428  -17.4374 H   0  0  0  0  0  0  0  0  0  0  0  0
   -4.2685   -7.8021  -15.4659 H   0  0  0  0  0  0  0  0  0  0  0  0
   -3.7642   -7.7692  -17.1579 H   0  0  0  0  0  0  0  0  0  0  0  0
    2.6292   -5.8342  -17.9340 H   0  0  0  0  0  0  0  0  0  0  0  0
    1.9912   -6.6916  -19.3364 H   0  0  0  0  0  0  0  0  0  0  0  0
    3.5699   -7.1613  -18.6587 H   0  0  0  0  0  0  0  0  0  0  0  0
   -0.5591   -8.7704  -19.9436 H   0  0  0  0  0  0  0  0  0  0  0  0
    0.7364   -7.6189  -20.3048 H   0  0  0  0  0  0  0  0  0  0  0  0
   -0.9557   -7.1515  -20.5459 H   0  0  0  0  0  0  0  0  0  0  0  0
   -0.0485   -6.1279  -18.4567 H   0  0  0  0  0  0  0  0  0  0  0  0
   -1.3875   -7.2072  -18.1216 H   0  0  0  0  0  0  0  0  0  0  0  0
    3.9106   -9.9936  -15.0440 H   0  0  0  0  0  0  0  0  0  0  0  0
    2.5090  -10.8148  -14.4130 H   0  0  0  0  0  0  0  0  0  0  0  0
  1  2  1  0  0  0  0
  1  3  2  0  0  0  0
  1 11  1  0  0  0  0
  2  9  1  0  0  0  0
  2 12  2  0  0  0  0
  3 13  1  0  0  0  0
  3 14  1  0  0  0  0
  4 12  1  0  0  0  0
  4 13  2  0  0  0  0
  4 15  1  0  0  0  0
  5  7  1  0  0  0  0
  5 14  1  0  0  0  0
  6  8  1  0  0  0  0
  6 14  1  0  0  0  0
  7 16  1  0  0  0  0
  8 16  1  0  0  0  0
 10 11  1  0  0  0  0
  5 17  1  0  0  0  0
  5 18  1  0  0  0  0
  6 19  1  0  0  0  0
  6 20  1  0  0  0  0
  7 21  1  0  0  0  0
  7 22  1  0  0  0  0
  8 23  1  0  0  0  0
  8 24  1  0  0  0  0
  9 25  1  0  0  0  0
  9 26  1  0  0  0  0
  9 27  1  0  0  0  0
 10 28  1  0  0  0  0
 10 29  1  0  0  0  0
 10 30  1  0  0  0  0
 11 31  1  0  0  0  0
 11 32  1  0  0  0  0
 15 33  1  0  0  0  0
 15 34  1  0  0  0  0
M  END
> <HYBRID receptor title>
27_FRAG(A) > 95F(A-200)

> <HYBRID receptor filename>
data/docking/pairs/27_frag.oedu

> <HYBRID Chemgauss4 score>
-13.099940

> <HYBRID receptor title>
27_FRAG(A) > 95F(A-200)

> <HYBRID receptor filename>
data/docking/pairs/27_frag.oedu

> <Dock Type>
Hybrid

$$$$
