molecule_1
  -OEChem-08062404133D

 36 38  0     0  0  0  0  0  0999 V2000
   28.9152    8.0034  -15.8730 C   0  0  0  0  0  0  0  0  0  0  0  0
   29.6370    8.5781  -14.8470 C   0  0  0  0  0  0  0  0  0  0  0  0
   27.5949    8.3931  -15.9662 C   0  0  0  0  0  0  0  0  0  0  0  0
   27.8213    9.7659  -14.1679 C   0  0  0  0  0  0  0  0  0  0  0  0
   33.4155    8.6213  -16.1712 C   0  0  0  0  0  0  0  0  0  0  0  0
   32.7952    9.7252  -15.3135 C   0  0  0  0  0  0  0  0  0  0  0  0
   32.3663    7.6124  -16.6391 C   0  0  0  0  0  0  0  0  0  0  0  0
   26.7480    6.7018  -19.3052 C   0  0  0  0  0  0  0  0  0  0  0  0
   28.0990    7.3363  -19.1637 C   0  0  0  0  0  0  0  0  0  0  0  0
   31.9555    9.1514  -14.1689 C   0  0  0  0  0  0  0  0  0  0  0  0
   31.5451    7.0862  -15.4629 C   0  0  0  0  0  0  0  0  0  0  0  0
   27.3505    6.8864  -17.9395 C   0  0  0  0  0  0  0  0  0  0  0  0
   29.1197    9.4664  -13.9729 N   0  0  0  0  0  0  0  0  0  0  0  0
   27.0128    9.2753  -15.1273 N   0  0  0  0  0  0  0  0  0  0  0  0
   30.9730    8.2111  -14.7190 N   0  0  0  0  0  0  0  0  0  0  0  0
   27.2459   10.6926  -13.2713 N   0  0  0  0  0  0  0  0  0  0  0  0
   26.8190    7.8260  -17.0067 N   0  0  0  0  0  0  0  0  0  0  0  0
   29.3568    7.2917  -16.5612 H   0  0  0  0  0  0  0  0  0  0  0  0
   33.9165    9.0670  -17.0431 H   0  0  0  0  0  0  0  0  0  0  0  0
   34.1948    8.1006  -15.5934 H   0  0  0  0  0  0  0  0  0  0  0  0
   33.5881   10.3596  -14.9032 H   0  0  0  0  0  0  0  0  0  0  0  0
   32.1657   10.3667  -15.9415 H   0  0  0  0  0  0  0  0  0  0  0  0
   31.7017    8.0879  -17.3657 H   0  0  0  0  0  0  0  0  0  0  0  0
   32.8596    6.7800  -17.1456 H   0  0  0  0  0  0  0  0  0  0  0  0
   25.9201    7.3377  -19.5936 H   0  0  0  0  0  0  0  0  0  0  0  0
   26.7026    5.6964  -19.7055 H   0  0  0  0  0  0  0  0  0  0  0  0
   28.9641    6.7585  -19.4648 H   0  0  0  0  0  0  0  0  0  0  0  0
   28.1774    8.3988  -19.3590 H   0  0  0  0  0  0  0  0  0  0  0  0
   32.6037    8.6396  -13.4569 H   0  0  0  0  0  0  0  0  0  0  0  0
   31.4549    9.9722  -13.6555 H   0  0  0  0  0  0  0  0  0  0  0  0
   30.7531    6.4393  -15.8480 H   0  0  0  0  0  0  0  0  0  0  0  0
   32.1828    6.4906  -14.8044 H   0  0  0  0  0  0  0  0  0  0  0  0
   27.7174    5.9948  -17.4430 H   0  0  0  0  0  0  0  0  0  0  0  0
   27.7957   11.0402  -12.5131 H   0  0  0  0  0  0  0  0  0  0  0  0
   26.2721   10.9023  -13.3478 H   0  0  0  0  0  0  0  0  0  0  0  0
   25.8643    8.1171  -17.0626 H   0  0  0  0  0  0  0  0  0  0  0  0
  1  2  2  0  0  0  0
  1  3  1  0  0  0  0
  2 13  1  0  0  0  0
  2 15  1  0  0  0  0
  3 14  2  0  0  0  0
  3 17  1  0  0  0  0
  4 13  2  0  0  0  0
  4 14  1  0  0  0  0
  4 16  1  0  0  0  0
  5  6  1  0  0  0  0
  5  7  1  0  0  0  0
  6 10  1  0  0  0  0
  7 11  1  0  0  0  0
  8  9  1  0  0  0  0
  8 12  1  0  0  0  0
  9 12  1  0  0  0  0
 10 15  1  0  0  0  0
 11 15  1  0  0  0  0
 12 17  1  0  0  0  0
  1 18  1  0  0  0  0
  5 19  1  0  0  0  0
  5 20  1  0  0  0  0
  6 21  1  0  0  0  0
  6 22  1  0  0  0  0
  7 23  1  0  0  0  0
  7 24  1  0  0  0  0
  8 25  1  0  0  0  0
  8 26  1  0  0  0  0
  9 27  1  0  0  0  0
  9 28  1  0  0  0  0
 10 29  1  0  0  0  0
 10 30  1  0  0  0  0
 11 31  1  0  0  0  0
 11 32  1  0  0  0  0
 12 33  1  0  0  0  0
 16 34  1  0  0  0  0
 16 35  1  0  0  0  0
 17 36  1  0  0  0  0
M  END
> <HYBRID receptor title>
27_LEAD(A) > CJ9(A-200)

> <HYBRID receptor filename>
data/docking/pairs/27_lead.oedu

> <HYBRID Chemgauss4 score>
-12.799689

> <HYBRID receptor title>
27_LEAD(A) > CJ9(A-200)

> <HYBRID receptor filename>
data/docking/pairs/27_lead.oedu

> <Dock Type>
Hybrid

$$$$
