molecule_1
  -OEChem-08062404043D

 30 31  0     1  0  0  0  0  0999 V2000
   -9.2263   18.2656  -18.4040 C   0  0  0  0  0  0  0  0  0  0  0  0
  -11.1777   19.2710  -19.4133 C   0  0  0  0  0  0  0  0  0  0  0  0
   -8.6644   18.0885  -19.6683 C   0  0  0  0  0  0  0  0  0  0  0  0
  -10.6159   19.0938  -20.6776 C   0  0  0  0  0  0  0  0  0  0  0  0
  -10.4830   18.8571  -18.2766 C   0  0  0  0  0  0  0  0  0  0  0  0
   -9.3591   18.5023  -20.8050 C   0  0  0  0  0  0  0  0  0  0  0  0
  -11.9808   20.2720  -16.7514 C   0  0  0  0  0  0  0  0  0  0  0  0
  -12.8710   18.5596  -15.3708 C   0  0  0  0  0  0  0  0  0  0  0  0
  -11.0906   19.0500  -16.9096 C   0  0  1  0  0  0  0  0  0  0  0  0
  -11.9785   17.8955  -16.4071 C   0  0  2  0  0  0  0  0  0  0  0  0
   -8.7583   18.3119  -22.1566 C   0  0  0  0  0  0  0  0  0  0  0  0
  -13.9912   20.8213  -15.3292 C   0  0  0  0  0  0  0  0  0  0  0  0
  -12.9874   19.9198  -15.8524 N   0  0  0  0  0  0  0  0  0  0  0  0
  -11.7957   21.3604  -17.2764 O   0  0  0  0  0  0  0  0  0  0  0  0
  -12.8155   17.3668  -17.4306 O   0  0  0  0  0  0  0  0  0  0  0  0
   -8.6773   17.9414  -17.5239 H   0  0  0  0  0  0  0  0  0  0  0  0
  -12.1581   19.7314  -19.3237 H   0  0  0  0  0  0  0  0  0  0  0  0
   -7.6844   17.6270  -19.7580 H   0  0  0  0  0  0  0  0  0  0  0  0
  -11.1641   19.4195  -21.5576 H   0  0  0  0  0  0  0  0  0  0  0  0
  -13.8633   18.1044  -15.3009 H   0  0  0  0  0  0  0  0  0  0  0  0
  -12.3945   18.5960  -14.3859 H   0  0  0  0  0  0  0  0  0  0  0  0
  -10.2522   19.1890  -16.1856 H   0  0  0  0  0  0  0  0  0  0  0  0
  -11.3950   17.0700  -15.9782 H   0  0  0  0  0  0  0  0  0  0  0  0
   -9.0379   17.3402  -22.5844 H   0  0  0  0  0  0  0  0  0  0  0  0
   -7.6613   18.3356  -22.1119 H   0  0  0  0  0  0  0  0  0  0  0  0
   -9.0953   19.1018  -22.8392 H   0  0  0  0  0  0  0  0  0  0  0  0
  -14.8755   20.8277  -15.9730 H   0  0  0  0  0  0  0  0  0  0  0  0
  -14.2910   20.5109  -14.3243 H   0  0  0  0  0  0  0  0  0  0  0  0
  -13.5922   21.8378  -15.2709 H   0  0  0  0  0  0  0  0  0  0  0  0
  -13.4039   16.7264  -17.0022 H   0  0  0  0  0  0  0  0  0  0  0  0
  1  3  2  0  0  0  0
  1  5  1  0  0  0  0
  2  4  1  0  0  0  0
  2  5  2  0  0  0  0
  3  6  1  0  0  0  0
  4  6  2  0  0  0  0
  5  9  1  0  0  0  0
  6 11  1  0  0  0  0
  7  9  1  0  0  0  0
  7 13  1  0  0  0  0
  7 14  2  0  0  0  0
  8 10  1  0  0  0  0
  8 13  1  0  0  0  0
  9 10  1  0  0  0  0
 10 15  1  0  0  0  0
 12 13  1  0  0  0  0
  1 16  1  0  0  0  0
  2 17  1  0  0  0  0
  3 18  1  0  0  0  0
  4 19  1  0  0  0  0
  8 20  1  0  0  0  0
  8 21  1  0  0  0  0
  9 22  1  0  0  0  0
 10 23  1  0  0  0  0
 11 24  1  0  0  0  0
 11 25  1  0  0  0  0
 11 26  1  0  0  0  0
 12 27  1  0  0  0  0
 12 28  1  0  0  0  0
 12 29  1  0  0  0  0
 15 30  1  0  0  0  0
M  END
> <HYBRID receptor title>
7WBS(AB) > 8LT(B-101)

> <HYBRID receptor filename>
data/docking/pairs/2_lead.oedu

> <HYBRID Chemgauss4 score>
-5.594190

> <HYBRID receptor title>
7WBS(AB) > 8LT(B-101)

> <HYBRID receptor filename>
data/docking/pairs/2_lead.oedu

> <Dock Type>
Hybrid

$$$$
