molecule_1
  -OEChem-08062404043D

 33 35  0     1  0  0  0  0  0999 V2000
   -3.4101   -1.2546    9.9112 C   0  0  0  0  0  0  0  0  0  0  0  0
   -2.2046   -0.5695   10.0638 C   0  0  0  0  0  0  0  0  0  0  0  0
   -4.4202   -1.1076   10.8617 C   0  0  0  0  0  0  0  0  0  0  0  0
   -2.0093    0.2624   11.1663 C   0  0  0  0  0  0  0  0  0  0  0  0
   -4.2249   -0.2757   11.9643 C   0  0  0  0  0  0  0  0  0  0  0  0
   -1.1786   -1.1871   18.0755 C   0  0  0  0  0  0  0  0  0  0  0  0
   -2.5520   -2.7372   16.9059 C   0  0  0  0  0  0  0  0  0  0  0  0
   -1.1685   -3.5139   18.5681 C   0  0  0  0  0  0  0  0  0  0  0  0
   -3.0195    0.4094   12.1169 C   0  0  0  0  0  0  0  0  0  0  0  0
   -2.1311   -1.4299   17.0922 C   0  0  0  0  0  0  0  0  0  0  0  0
   -0.6830   -2.2433   18.8319 C   0  0  0  0  0  0  0  0  0  0  0  0
   -3.0939   -0.5195   15.0108 C   0  0  0  0  0  0  0  0  0  0  0  0
   -2.7900    0.9248   16.7460 C   0  0  0  0  0  0  0  0  0  0  0  0
   -3.5827    0.8355   14.5223 C   0  0  2  0  0  0  0  0  0  0  0  0
   -2.8087    1.3086   13.3091 C   0  0  0  0  0  0  0  0  0  0  0  0
   -2.0934   -3.7888   17.6213 N   0  0  0  0  0  0  0  0  0  0  0  0
   -3.3317    1.6424   15.6788 N   0  0  0  0  0  0  0  0  0  0  0  0
   -2.6442   -0.3940   16.3202 N   0  0  0  0  0  0  0  0  0  0  0  0
   -3.1102   -1.5365   14.3279 O   0  0  0  0  0  0  0  0  0  0  0  0
   -2.5060    1.3881   17.8437 O   0  0  0  0  0  0  0  0  0  0  0  0
    0.2341   -2.0388   19.7840 F   0  0  0  0  0  0  0  0  0  0  0  0
   -3.5621   -1.9023    9.0529 H   0  0  0  0  0  0  0  0  0  0  0  0
   -1.4181   -0.6835    9.3235 H   0  0  0  0  0  0  0  0  0  0  0  0
   -5.3587   -1.6411   10.7433 H   0  0  0  0  0  0  0  0  0  0  0  0
   -1.0667    0.7920   11.2767 H   0  0  0  0  0  0  0  0  0  0  0  0
   -5.0182   -0.1668   12.6991 H   0  0  0  0  0  0  0  0  0  0  0  0
   -0.8154   -0.1797   18.2598 H   0  0  0  0  0  0  0  0  0  0  0  0
   -3.2932   -2.9903   16.1537 H   0  0  0  0  0  0  0  0  0  0  0  0
   -0.8147   -4.3711   19.1313 H   0  0  0  0  0  0  0  0  0  0  0  0
   -4.6610    0.8032   14.3428 H   0  0  0  0  0  0  0  0  0  0  0  0
   -3.1059    2.3342   13.0496 H   0  0  0  0  0  0  0  0  0  0  0  0
   -1.7357    1.3596   13.5423 H   0  0  0  0  0  0  0  0  0  0  0  0
   -3.5654    2.6286   15.7383 H   0  0  0  0  0  0  0  0  0  0  0  0
  1  2  1  0  0  0  0
  1  3  2  0  0  0  0
  2  4  2  0  0  0  0
  3  5  1  0  0  0  0
  4  9  1  0  0  0  0
  5  9  2  0  0  0  0
  6 10  1  0  0  0  0
  6 11  2  0  0  0  0
  7 10  2  0  0  0  0
  7 16  1  0  0  0  0
  8 11  1  0  0  0  0
  8 16  2  0  0  0  0
  9 15  1  0  0  0  0
 10 18  1  0  0  0  0
 11 21  1  0  0  0  0
 12 14  1  0  0  0  0
 12 18  1  0  0  0  0
 12 19  2  0  0  0  0
 13 17  1  0  0  0  0
 13 18  1  0  0  0  0
 13 20  2  0  0  0  0
 14 15  1  0  0  0  0
 14 17  1  0  0  0  0
  1 22  1  0  0  0  0
  2 23  1  0  0  0  0
  3 24  1  0  0  0  0
  4 25  1  0  0  0  0
  5 26  1  0  0  0  0
  6 27  1  0  0  0  0
  7 28  1  0  0  0  0
  8 29  1  0  0  0  0
 14 30  1  0  0  0  0
 15 31  1  0  0  0  0
 15 32  1  0  0  0  0
 17 33  1  0  0  0  0
M  END
> <HYBRID receptor title>
7B2U(AB)altB > SQ5(B-401)

> <HYBRID receptor filename>
data/docking/pairs/3_frag.oedu

> <HYBRID Chemgauss4 score>
-8.535799

> <HYBRID receptor title>
7B2U(AB)altB > SQ5(B-401)

> <HYBRID receptor filename>
data/docking/pairs/3_frag.oedu

> <Dock Type>
Hybrid

$$$$
