molecule_1
  -OEChem-08062404043D

 43 47  0     0  0  0  0  0  0999 V2000
   -1.7955   -4.8621   19.3911 C   0  0  0  0  0  0  0  0  0  0  0  0
   -2.5283   -4.3730   18.3118 C   0  0  0  0  0  0  0  0  0  0  0  0
   -3.7930    1.1422    9.2473 C   0  0  0  0  0  0  0  0  0  0  0  0
   -4.7302    0.2820    8.6751 C   0  0  0  0  0  0  0  0  0  0  0  0
   -0.7714   -4.0935   19.9437 C   0  0  0  0  0  0  0  0  0  0  0  0
   -2.2412   -3.1149   17.7814 C   0  0  0  0  0  0  0  0  0  0  0  0
   -3.2138    0.8241   10.4757 C   0  0  0  0  0  0  0  0  0  0  0  0
   -5.0880   -0.8961    9.3309 C   0  0  0  0  0  0  0  0  0  0  0  0
    0.5401   -2.0148   19.9327 C   0  0  0  0  0  0  0  0  0  0  0  0
    0.1282   -0.3459   18.4092 C   0  0  0  0  0  0  0  0  0  0  0  0
   -0.4734   -2.8255   19.4182 C   0  0  0  0  0  0  0  0  0  0  0  0
   -1.2135   -2.3278   18.3261 C   0  0  0  0  0  0  0  0  0  0  0  0
   -3.5716   -0.3540   11.1314 C   0  0  0  0  0  0  0  0  0  0  0  0
   -0.9013   -1.0623   17.8166 C   0  0  0  0  0  0  0  0  0  0  0  0
   -4.5088   -1.2142   10.5593 C   0  0  0  0  0  0  0  0  0  0  0  0
   -1.6648   -1.0462   15.4331 C   0  0  0  0  0  0  0  0  0  0  0  0
   -2.3064    0.7453   16.7814 C   0  0  0  0  0  0  0  0  0  0  0  0
   -3.7633   -0.6490   13.8149 C   0  0  0  0  0  0  0  0  0  0  0  0
   -2.0054    0.4047   13.2044 C   0  0  0  0  0  0  0  0  0  0  0  0
   -2.8915   -0.6805   12.5254 C   0  0  0  0  0  0  0  0  0  0  0  0
   -2.5409   -0.0831   14.5660 C   0  0  0  0  0  0  0  0  0  0  0  0
    0.8573   -0.7901   19.4550 N   0  0  0  0  0  0  0  0  0  0  0  0
   -2.8548    0.9900   15.5116 N   0  0  0  0  0  0  0  0  0  0  0  0
   -1.6005   -0.4797   16.7103 N   0  0  0  0  0  0  0  0  0  0  0  0
   -1.1135   -2.0640   15.0239 O   0  0  0  0  0  0  0  0  0  0  0  0
   -2.4859    1.4826   17.7432 O   0  0  0  0  0  0  0  0  0  0  0  0
   -4.9733   -2.6785   11.3438 Cl  0  0  0  0  0  0  0  0  0  0  0  0
   -2.0220   -5.8415   19.8021 H   0  0  0  0  0  0  0  0  0  0  0  0
   -3.3259   -4.9725   17.8824 H   0  0  0  0  0  0  0  0  0  0  0  0
   -3.5144    2.0593    8.7365 H   0  0  0  0  0  0  0  0  0  0  0  0
   -5.1814    0.5297    7.7187 H   0  0  0  0  0  0  0  0  0  0  0  0
   -0.2091   -4.4896   20.7863 H   0  0  0  0  0  0  0  0  0  0  0  0
   -2.8363   -2.7680   16.9395 H   0  0  0  0  0  0  0  0  0  0  0  0
   -2.4845    1.4998   10.9144 H   0  0  0  0  0  0  0  0  0  0  0  0
   -5.8197   -1.5556    8.8712 H   0  0  0  0  0  0  0  0  0  0  0  0
    1.1477   -2.3380   20.7736 H   0  0  0  0  0  0  0  0  0  0  0  0
    0.4088    0.6403   18.0506 H   0  0  0  0  0  0  0  0  0  0  0  0
   -4.6213    0.0329   13.7645 H   0  0  0  0  0  0  0  0  0  0  0  0
   -4.1193   -1.6265   14.1547 H   0  0  0  0  0  0  0  0  0  0  0  0
   -0.9292    0.2835   13.0464 H   0  0  0  0  0  0  0  0  0  0  0  0
   -2.2783    1.4369   12.9516 H   0  0  0  0  0  0  0  0  0  0  0  0
   -2.3468   -1.6380   12.4434 H   0  0  0  0  0  0  0  0  0  0  0  0
   -3.4071    1.8172   15.3133 H   0  0  0  0  0  0  0  0  0  0  0  0
  1  2  1  0  0  0  0
  1  5  2  0  0  0  0
  2  6  2  0  0  0  0
  3  4  1  0  0  0  0
  3  7  2  0  0  0  0
  4  8  2  0  0  0  0
  5 11  1  0  0  0  0
  6 12  1  0  0  0  0
  7 13  1  0  0  0  0
  8 15  1  0  0  0  0
  9 11  2  0  0  0  0
  9 22  1  0  0  0  0
 10 14  1  0  0  0  0
 10 22  2  0  0  0  0
 11 12  1  0  0  0  0
 12 14  2  0  0  0  0
 13 15  2  0  0  0  0
 13 20  1  0  0  0  0
 14 24  1  0  0  0  0
 15 27  1  0  0  0  0
 16 21  1  0  0  0  0
 16 24  1  0  0  0  0
 16 25  2  0  0  0  0
 17 23  1  0  0  0  0
 17 24  1  0  0  0  0
 17 26  2  0  0  0  0
 18 20  1  0  0  0  0
 18 21  1  0  0  0  0
 19 20  1  0  0  0  0
 19 21  1  0  0  0  0
 21 23  1  0  0  0  0
  1 28  1  0  0  0  0
  2 29  1  0  0  0  0
  3 30  1  0  0  0  0
  4 31  1  0  0  0  0
  5 32  1  0  0  0  0
  6 33  1  0  0  0  0
  7 34  1  0  0  0  0
  8 35  1  0  0  0  0
  9 36  1  0  0  0  0
 10 37  1  0  0  0  0
 18 38  1  0  0  0  0
 18 39  1  0  0  0  0
 19 40  1  0  0  0  0
 19 41  1  0  0  0  0
 20 42  1  0  0  0  0
 23 43  1  0  0  0  0
M  END
> <HYBRID receptor title>
7B2U(AB)altB > SQ5(B-401)

> <HYBRID receptor filename>
data/docking/pairs/3_frag.oedu

> <HYBRID Chemgauss4 score>
-8.747869

> <HYBRID receptor title>
7B2U(AB)altB > SQ5(B-401)

> <HYBRID receptor filename>
data/docking/pairs/3_frag.oedu

> <Dock Type>
Hybrid

$$$$
