molecule_1
  -OEChem-08062404043D

 43 47  0     0  0  0  0  0  0999 V2000
    3.3777    3.5420   20.9939 C   0  0  0  0  0  0  0  0  0  0  0  0
    4.1098    2.9063   21.9943 C   0  0  0  0  0  0  0  0  0  0  0  0
   14.8019   -0.9267   24.2673 C   0  0  0  0  0  0  0  0  0  0  0  0
   14.5535   -1.8689   25.2654 C   0  0  0  0  0  0  0  0  0  0  0  0
    3.7062    3.3386   19.6538 C   0  0  0  0  0  0  0  0  0  0  0  0
    5.1716    2.0653   21.6599 C   0  0  0  0  0  0  0  0  0  0  0  0
   13.7564   -0.4683   23.4659 C   0  0  0  0  0  0  0  0  0  0  0  0
   13.2598   -2.3524   25.4623 C   0  0  0  0  0  0  0  0  0  0  0  0
    5.1442    2.2552   17.9807 C   0  0  0  0  0  0  0  0  0  0  0  0
    6.8528    0.8499   18.5986 C   0  0  0  0  0  0  0  0  0  0  0  0
    4.7730    2.4942   19.3052 C   0  0  0  0  0  0  0  0  0  0  0  0
    5.5156    1.8493   20.3155 C   0  0  0  0  0  0  0  0  0  0  0  0
   12.4628   -0.9517   23.6629 C   0  0  0  0  0  0  0  0  0  0  0  0
    6.5750    1.0121   19.9479 C   0  0  0  0  0  0  0  0  0  0  0  0
   12.2143   -1.8939   24.6610 C   0  0  0  0  0  0  0  0  0  0  0  0
    8.7638    0.4853   21.0414 C   0  0  0  0  0  0  0  0  0  0  0  0
    6.8708   -0.6242   21.8317 C   0  0  0  0  0  0  0  0  0  0  0  0
   10.0062    0.1513   23.3919 C   0  0  0  0  0  0  0  0  0  0  0  0
   10.3823   -1.4263   21.9980 C   0  0  0  0  0  0  0  0  0  0  0  0
   11.3015   -0.4065   22.7322 C   0  0  0  0  0  0  0  0  0  0  0  0
    9.2099   -0.4480   22.2149 C   0  0  0  0  0  0  0  0  0  0  0  0
    6.1640    1.4505   17.6049 N   0  0  0  0  0  0  0  0  0  0  0  0
    7.9510   -1.0892   22.5998 N   0  0  0  0  0  0  0  0  0  0  0  0
    7.3817    0.3184   20.9073 N   0  0  0  0  0  0  0  0  0  0  0  0
    9.5164    1.1747   20.3591 O   0  0  0  0  0  0  0  0  0  0  0  0
    5.7136   -0.9823   22.0151 O   0  0  0  0  0  0  0  0  0  0  0  0
   10.6266   -2.5121   24.9306 Cl  0  0  0  0  0  0  0  0  0  0  0  0
    2.5512    4.1953   21.2575 H   0  0  0  0  0  0  0  0  0  0  0  0
    3.8528    3.0653   23.0377 H   0  0  0  0  0  0  0  0  0  0  0  0
   15.8091   -0.5504   24.1142 H   0  0  0  0  0  0  0  0  0  0  0  0
   15.3676   -2.2262   25.8893 H   0  0  0  0  0  0  0  0  0  0  0  0
    3.1245    3.8419   18.8848 H   0  0  0  0  0  0  0  0  0  0  0  0
    5.7182    1.5868   22.4695 H   0  0  0  0  0  0  0  0  0  0  0  0
   13.9587    0.2658   22.6907 H   0  0  0  0  0  0  0  0  0  0  0  0
   13.0832   -3.0863   26.2446 H   0  0  0  0  0  0  0  0  0  0  0  0
    4.6137    2.7204   17.1542 H   0  0  0  0  0  0  0  0  0  0  0  0
    7.6643    0.2110   18.2622 H   0  0  0  0  0  0  0  0  0  0  0  0
    9.7713   -0.2875   24.3697 H   0  0  0  0  0  0  0  0  0  0  0  0
    9.9689    1.2411   23.4852 H   0  0  0  0  0  0  0  0  0  0  0  0
   10.6523   -1.6199   20.9552 H   0  0  0  0  0  0  0  0  0  0  0  0
   10.2719   -2.3896   22.5115 H   0  0  0  0  0  0  0  0  0  0  0  0
   11.7251    0.3242   22.0204 H   0  0  0  0  0  0  0  0  0  0  0  0
    7.8330   -1.7794   23.3336 H   0  0  0  0  0  0  0  0  0  0  0  0
  1  2  1  0  0  0  0
  1  5  2  0  0  0  0
  2  6  2  0  0  0  0
  3  4  1  0  0  0  0
  3  7  2  0  0  0  0
  4  8  2  0  0  0  0
  5 11  1  0  0  0  0
  6 12  1  0  0  0  0
  7 13  1  0  0  0  0
  8 15  1  0  0  0  0
  9 11  2  0  0  0  0
  9 22  1  0  0  0  0
 10 14  1  0  0  0  0
 10 22  2  0  0  0  0
 11 12  1  0  0  0  0
 12 14  2  0  0  0  0
 13 15  2  0  0  0  0
 13 20  1  0  0  0  0
 14 24  1  0  0  0  0
 15 27  1  0  0  0  0
 16 21  1  0  0  0  0
 16 24  1  0  0  0  0
 16 25  2  0  0  0  0
 17 23  1  0  0  0  0
 17 24  1  0  0  0  0
 17 26  2  0  0  0  0
 18 20  1  0  0  0  0
 18 21  1  0  0  0  0
 19 20  1  0  0  0  0
 19 21  1  0  0  0  0
 21 23  1  0  0  0  0
  1 28  1  0  0  0  0
  2 29  1  0  0  0  0
  3 30  1  0  0  0  0
  4 31  1  0  0  0  0
  5 32  1  0  0  0  0
  6 33  1  0  0  0  0
  7 34  1  0  0  0  0
  8 35  1  0  0  0  0
  9 36  1  0  0  0  0
 10 37  1  0  0  0  0
 18 38  1  0  0  0  0
 18 39  1  0  0  0  0
 19 40  1  0  0  0  0
 19 41  1  0  0  0  0
 20 42  1  0  0  0  0
 23 43  1  0  0  0  0
M  END
> <HYBRID receptor title>
7QBB(AB) > V1B(B-402)

> <HYBRID receptor filename>
data/docking/pairs/3_lead.oedu

> <HYBRID Chemgauss4 score>
-12.452439

> <HYBRID receptor title>
7QBB(AB) > V1B(B-402)

> <HYBRID receptor filename>
data/docking/pairs/3_lead.oedu

> <Dock Type>
Hybrid

$$$$
