molecule_1
  -OEChem-08062404053D

 30 30  0     1  0  0  0  0  0999 V2000
   -5.5286  -50.0868   36.2101 C   0  0  0  0  0  0  0  0  0  0  0  0
   -3.1958  -50.4592   35.7034 C   0  0  0  0  0  0  0  0  0  0  0  0
   -5.6750  -51.4376   36.5257 C   0  0  0  0  0  0  0  0  0  0  0  0
   -3.3421  -51.8100   36.0190 C   0  0  0  0  0  0  0  0  0  0  0  0
   -4.2888  -49.5977   35.7991 C   0  0  0  0  0  0  0  0  0  0  0  0
   -4.5820  -52.2991   36.4300 C   0  0  0  0  0  0  0  0  0  0  0  0
   -2.6551  -46.1033   35.4749 C   0  0  0  0  0  0  0  0  0  0  0  0
   -2.1113  -44.2852   33.8377 C   0  0  0  0  0  0  0  0  0  0  0  0
   -1.7982  -46.6382   33.1822 C   0  0  0  0  0  0  0  0  0  0  0  0
   -4.1301  -48.1356   35.4559 C   0  0  0  0  0  0  0  0  0  0  0  0
   -2.7190  -47.6050   35.7337 C   0  0  2  0  0  0  0  0  0  0  0  0
   -2.3795  -47.7924   37.1686 N   0  0  0  0  0  0  0  0  0  0  0  0
   -2.2062  -45.6924   34.2155 N   0  0  0  0  0  0  0  0  0  0  0  0
   -3.0024  -45.3087   36.3555 O   0  0  0  0  0  0  0  0  0  0  0  0
   -4.7237  -53.5961   36.7326 F   0  0  0  0  0  0  0  0  0  0  0  0
   -6.3851  -49.4226   36.2880 H   0  0  0  0  0  0  0  0  0  0  0  0
   -2.2259  -50.0865   35.3842 H   0  0  0  0  0  0  0  0  0  0  0  0
   -6.6399  -51.8194   36.8459 H   0  0  0  0  0  0  0  0  0  0  0  0
   -2.4915  -52.4811   35.9444 H   0  0  0  0  0  0  0  0  0  0  0  0
   -1.1253  -43.8848   34.0905 H   0  0  0  0  0  0  0  0  0  0  0  0
   -2.2711  -44.1711   32.7619 H   0  0  0  0  0  0  0  0  0  0  0  0
   -2.8723  -43.7011   34.3626 H   0  0  0  0  0  0  0  0  0  0  0  0
   -2.6517  -46.9173   32.5576 H   0  0  0  0  0  0  0  0  0  0  0  0
   -1.0281  -46.1935   32.5457 H   0  0  0  0  0  0  0  0  0  0  0  0
   -1.3871  -47.5426   33.6392 H   0  0  0  0  0  0  0  0  0  0  0  0
   -4.8733  -47.5460   36.0098 H   0  0  0  0  0  0  0  0  0  0  0  0
   -4.3921  -47.9997   34.3986 H   0  0  0  0  0  0  0  0  0  0  0  0
   -1.9475  -48.1304   35.1631 H   0  0  0  0  0  0  0  0  0  0  0  0
   -1.4516  -47.4254   37.3119 H   0  0  0  0  0  0  0  0  0  0  0  0
   -2.3499  -48.7843   37.3475 H   0  0  0  0  0  0  0  0  0  0  0  0
  1  3  2  0  0  0  0
  1  5  1  0  0  0  0
  2  4  1  0  0  0  0
  2  5  2  0  0  0  0
  3  6  1  0  0  0  0
  4  6  2  0  0  0  0
  5 10  1  0  0  0  0
  6 15  1  0  0  0  0
  7 11  1  0  0  0  0
  7 13  1  0  0  0  0
  7 14  2  0  0  0  0
  8 13  1  0  0  0  0
  9 13  1  0  0  0  0
 10 11  1  0  0  0  0
 11 12  1  0  0  0  0
  1 16  1  0  0  0  0
  2 17  1  0  0  0  0
  3 18  1  0  0  0  0
  4 19  1  0  0  0  0
  8 20  1  0  0  0  0
  8 21  1  0  0  0  0
  8 22  1  0  0  0  0
  9 23  1  0  0  0  0
  9 24  1  0  0  0  0
  9 25  1  0  0  0  0
 10 26  1  0  0  0  0
 10 27  1  0  0  0  0
 11 28  1  0  0  0  0
 12 29  1  0  0  0  0
 12 30  1  0  0  0  0
M  END
> <HYBRID receptor title>
7ZZW(C) > KKW(C-608)

> <HYBRID receptor filename>
data/docking/pairs/5_lead.oedu

> <HYBRID Chemgauss4 score>
-8.675609

> <HYBRID receptor title>
7ZZW(C) > KKW(C-608)

> <HYBRID receptor filename>
data/docking/pairs/5_lead.oedu

> <Dock Type>
Hybrid

$$$$
