molecule_1
  -OEChem-08062404053D

 52 56  0     1  0  0  0  0  0999 V2000
   -1.4024  -43.6192   33.2721 C   0  0  0  0  0  0  0  0  0  0  0  0
   -1.1051  -45.8114   32.3007 C   0  0  0  0  0  0  0  0  0  0  0  0
   -1.4650  -43.0624   31.9947 C   0  0  0  0  0  0  0  0  0  0  0  0
   -1.1677  -45.2546   31.0234 C   0  0  0  0  0  0  0  0  0  0  0  0
   -6.1110  -53.4809   40.3281 C   0  0  0  0  0  0  0  0  0  0  0  0
   -6.2603  -55.3436   38.5435 C   0  0  0  0  0  0  0  0  0  0  0  0
   -5.9144  -52.1170   40.4715 C   0  0  0  0  0  0  0  0  0  0  0  0
   -6.1721  -55.4405   37.1749 C   0  0  0  0  0  0  0  0  0  0  0  0
   -6.0913  -54.0008   39.0200 C   0  0  0  0  0  0  0  0  0  0  0  0
   -1.2225  -44.9939   33.4250 C   0  0  0  0  0  0  0  0  0  0  0  0
   -5.8755  -53.1126   37.9618 C   0  0  0  0  0  0  0  0  0  0  0  0
   -1.3475  -43.8799   30.8705 C   0  0  0  0  0  0  0  0  0  0  0  0
   -5.6845  -51.7490   38.1911 C   0  0  0  0  0  0  0  0  0  0  0  0
   -3.8981  -47.2381   36.0487 C   0  0  0  0  0  0  0  0  0  0  0  0
   -1.6691  -47.0425   34.9041 C   0  0  0  0  0  0  0  0  0  0  0  0
   -6.3905  -49.7525   36.8968 C   0  0  0  0  0  0  0  0  0  0  0  0
   -4.3734  -51.0303   36.1759 C   0  0  0  0  0  0  0  0  0  0  0  0
   -5.8405  -48.7635   35.8664 C   0  0  0  0  0  0  0  0  0  0  0  0
   -3.5635  -49.7373   36.1161 C   0  0  0  0  0  0  0  0  0  0  0  0
   -1.9661  -44.8426   35.8580 C   0  0  0  0  0  0  0  0  0  0  0  0
   -1.1548  -45.5972   34.8070 C   0  0  2  0  0  0  0  0  0  0  0  0
   -2.4062  -47.1120   36.2389 C   0  0  1  0  0  0  0  0  0  0  0  0
   -5.7062  -51.2625   39.4512 N   0  0  0  0  0  0  0  0  0  0  0  0
   -2.1343  -45.8418   36.9109 N   0  0  0  0  0  0  0  0  0  0  0  0
   -5.4660  -50.8692   37.1351 N   0  0  0  0  0  0  0  0  0  0  0  0
   -4.4061  -48.5384   36.0395 N   0  0  0  0  0  0  0  0  0  0  0  0
   -4.5851  -46.2231   35.9178 O   0  0  0  0  0  0  0  0  0  0  0  0
   -5.8858  -53.9272   36.4444 S   0  0  0  0  0  0  0  0  0  0  0  0
   -1.4247  -43.1918   29.2950 Cl  0  0  0  0  0  0  0  0  0  0  0  0
   -1.4949  -42.9747   34.1422 H   0  0  0  0  0  0  0  0  0  0  0  0
   -0.9647  -46.8834   32.4106 H   0  0  0  0  0  0  0  0  0  0  0  0
   -1.6051  -41.9894   31.8906 H   0  0  0  0  0  0  0  0  0  0  0  0
   -1.0745  -45.9036   30.1565 H   0  0  0  0  0  0  0  0  0  0  0  0
   -6.2734  -54.1161   41.1922 H   0  0  0  0  0  0  0  0  0  0  0  0
   -6.4393  -56.1991   39.1831 H   0  0  0  0  0  0  0  0  0  0  0  0
   -5.9200  -51.6620   41.4570 H   0  0  0  0  0  0  0  0  0  0  0  0
   -6.2629  -56.3322   36.5710 H   0  0  0  0  0  0  0  0  0  0  0  0
   -2.3101  -47.3160   34.0574 H   0  0  0  0  0  0  0  0  0  0  0  0
   -0.8152  -47.7307   34.9070 H   0  0  0  0  0  0  0  0  0  0  0  0
   -6.5781  -49.2168   37.8374 H   0  0  0  0  0  0  0  0  0  0  0  0
   -7.3560  -50.1477   36.5510 H   0  0  0  0  0  0  0  0  0  0  0  0
   -4.7562  -51.2501   35.1815 H   0  0  0  0  0  0  0  0  0  0  0  0
   -3.7401  -51.8563   36.4905 H   0  0  0  0  0  0  0  0  0  0  0  0
   -6.0371  -49.1367   34.8651 H   0  0  0  0  0  0  0  0  0  0  0  0
   -6.3334  -47.7986   35.9770 H   0  0  0  0  0  0  0  0  0  0  0  0
   -2.9034  -49.6716   36.9894 H   0  0  0  0  0  0  0  0  0  0  0  0
   -2.9168  -49.7302   35.2284 H   0  0  0  0  0  0  0  0  0  0  0  0
   -1.4404  -43.9549   36.2250 H   0  0  0  0  0  0  0  0  0  0  0  0
   -2.9433  -44.5186   35.4796 H   0  0  0  0  0  0  0  0  0  0  0  0
   -0.0778  -45.5905   35.1126 H   0  0  0  0  0  0  0  0  0  0  0  0
   -2.0791  -47.9649   36.8436 H   0  0  0  0  0  0  0  0  0  0  0  0
   -1.2459  -45.9363   37.4048 H   0  0  0  0  0  0  0  0  0  0  0  0
  1  3  2  0  0  0  0
  1 10  1  0  0  0  0
  2  4  1  0  0  0  0
  2 10  2  0  0  0  0
  3 12  1  0  0  0  0
  4 12  2  0  0  0  0
  5  7  1  0  0  0  0
  5  9  2  0  0  0  0
  6  8  2  0  0  0  0
  6  9  1  0  0  0  0
  7 23  2  0  0  0  0
  8 28  1  0  0  0  0
  9 11  1  0  0  0  0
 10 21  1  0  0  0  0
 11 13  2  0  0  0  0
 11 28  1  0  0  0  0
 12 29  1  0  0  0  0
 13 23  1  0  0  0  0
 13 25  1  0  0  0  0
 14 22  1  0  0  0  0
 14 26  1  0  0  0  0
 14 27  2  0  0  0  0
 15 21  1  0  0  0  0
 15 22  1  0  0  0  0
 16 18  1  0  0  0  0
 16 25  1  0  0  0  0
 17 19  1  0  0  0  0
 17 25  1  0  0  0  0
 18 26  1  0  0  0  0
 19 26  1  0  0  0  0
 20 21  1  0  0  0  0
 20 24  1  0  0  0  0
 22 24  1  0  0  0  0
  1 30  1  0  0  0  0
  2 31  1  0  0  0  0
  3 32  1  0  0  0  0
  4 33  1  0  0  0  0
  5 34  1  0  0  0  0
  6 35  1  0  0  0  0
  7 36  1  0  0  0  0
  8 37  1  0  0  0  0
 15 38  1  0  0  0  0
 15 39  1  0  0  0  0
 16 40  1  0  0  0  0
 16 41  1  0  0  0  0
 17 42  1  0  0  0  0
 17 43  1  0  0  0  0
 18 44  1  0  0  0  0
 18 45  1  0  0  0  0
 19 46  1  0  0  0  0
 19 47  1  0  0  0  0
 20 48  1  0  0  0  0
 20 49  1  0  0  0  0
 21 50  1  0  0  0  0
 22 51  1  0  0  0  0
 24 52  1  0  0  0  0
M  END
> <HYBRID receptor title>
7ZZW(C) > KKW(C-608)

> <HYBRID receptor filename>
data/docking/pairs/5_lead.oedu

> <HYBRID Chemgauss4 score>
-13.291408

> <HYBRID receptor title>
7ZZW(C) > KKW(C-608)

> <HYBRID receptor filename>
data/docking/pairs/5_lead.oedu

> <Dock Type>
Hybrid

$$$$
