molecule_1
  -OEChem-08062404053D

 52 56  0     1  0  0  0  0  0999 V2000
   18.1139  -21.3845    1.4813 C   0  0  0  0  0  0  0  0  0  0  0  0
   18.9892  -19.1534    1.7873 C   0  0  0  0  0  0  0  0  0  0  0  0
   17.1924  -21.1627    2.5047 C   0  0  0  0  0  0  0  0  0  0  0  0
   18.0678  -18.9315    2.8107 C   0  0  0  0  0  0  0  0  0  0  0  0
   27.5708  -15.0171   -5.2033 C   0  0  0  0  0  0  0  0  0  0  0  0
   29.6459  -15.4096   -3.7144 C   0  0  0  0  0  0  0  0  0  0  0  0
   26.1859  -15.0494   -5.1796 C   0  0  0  0  0  0  0  0  0  0  0  0
   29.9013  -15.7809   -2.4156 C   0  0  0  0  0  0  0  0  0  0  0  0
   28.2436  -15.3498   -4.0122 C   0  0  0  0  0  0  0  0  0  0  0  0
   19.0122  -20.3796    1.1226 C   0  0  0  0  0  0  0  0  0  0  0  0
   27.4748  -15.6888   -2.8945 C   0  0  0  0  0  0  0  0  0  0  0  0
   17.1694  -19.9364    3.1695 C   0  0  0  0  0  0  0  0  0  0  0  0
   26.0802  -15.6983   -2.9533 C   0  0  0  0  0  0  0  0  0  0  0  0
   21.6876  -17.4406   -0.5452 C   0  0  0  0  0  0  0  0  0  0  0  0
   21.3348  -19.8471    0.1615 C   0  0  0  0  0  0  0  0  0  0  0  0
   24.3624  -15.0804   -1.2719 C   0  0  0  0  0  0  0  0  0  0  0  0
   25.4637  -17.3142   -1.1352 C   0  0  0  0  0  0  0  0  0  0  0  0
   23.4500  -15.7299   -0.2288 C   0  0  0  0  0  0  0  0  0  0  0  0
   24.0989  -17.9922   -1.0390 C   0  0  0  0  0  0  0  0  0  0  0  0
   19.4876  -20.1862   -1.3594 C   0  0  0  0  0  0  0  0  0  0  0  0
   20.0159  -20.6204    0.0080 C   0  0  2  0  0  0  0  0  0  0  0  0
   21.3572  -18.8445   -0.9900 C   0  0  1  0  0  0  0  0  0  0  0  0
   25.4465  -15.3765   -4.1022 N   0  0  0  0  0  0  0  0  0  0  0  0
   19.9982  -18.8276   -1.5235 N   0  0  0  0  0  0  0  0  0  0  0  0
   25.3190  -16.0403   -1.8395 N   0  0  0  0  0  0  0  0  0  0  0  0
   23.0312  -17.0716   -0.6318 N   0  0  0  0  0  0  0  0  0  0  0  0
   20.7886  -16.7004   -0.1412 O   0  0  0  0  0  0  0  0  0  0  0  0
   28.4675  -16.0627   -1.5378 S   0  0  0  0  0  0  0  0  0  0  0  0
   16.0323  -19.6639    4.4321 Cl  0  0  0  0  0  0  0  0  0  0  0  0
   18.1245  -22.3428    0.9689 H   0  0  0  0  0  0  0  0  0  0  0  0
   19.6855  -18.3649    1.5143 H   0  0  0  0  0  0  0  0  0  0  0  0
   16.4986  -21.9550    2.7741 H   0  0  0  0  0  0  0  0  0  0  0  0
   18.0614  -17.9713    3.3200 H   0  0  0  0  0  0  0  0  0  0  0  0
   28.1082  -14.7452   -6.1054 H   0  0  0  0  0  0  0  0  0  0  0  0
   30.4303  -15.1879   -4.4276 H   0  0  0  0  0  0  0  0  0  0  0  0
   25.6156  -14.8017   -6.0693 H   0  0  0  0  0  0  0  0  0  0  0  0
   30.8659  -15.8994   -1.9425 H   0  0  0  0  0  0  0  0  0  0  0  0
   21.4220  -19.3592    1.1421 H   0  0  0  0  0  0  0  0  0  0  0  0
   22.1771  -20.5464    0.0703 H   0  0  0  0  0  0  0  0  0  0  0  0
   23.7405  -14.6567   -2.0722 H   0  0  0  0  0  0  0  0  0  0  0  0
   24.9129  -14.2468   -0.8136 H   0  0  0  0  0  0  0  0  0  0  0  0
   25.8511  -17.1626   -0.1299 H   0  0  0  0  0  0  0  0  0  0  0  0
   26.1602  -17.9470   -1.6800 H   0  0  0  0  0  0  0  0  0  0  0  0
   23.9666  -15.7759    0.7259 H   0  0  0  0  0  0  0  0  0  0  0  0
   22.5465  -15.1348   -0.1030 H   0  0  0  0  0  0  0  0  0  0  0  0
   23.8444  -18.4531   -2.0010 H   0  0  0  0  0  0  0  0  0  0  0  0
   24.1237  -18.8008   -0.2963 H   0  0  0  0  0  0  0  0  0  0  0  0
   19.8391  -20.8487   -2.1652 H   0  0  0  0  0  0  0  0  0  0  0  0
   18.3859  -20.1875   -1.4016 H   0  0  0  0  0  0  0  0  0  0  0  0
   20.2316  -21.7048   -0.0107 H   0  0  0  0  0  0  0  0  0  0  0  0
   22.0827  -19.1241   -1.7651 H   0  0  0  0  0  0  0  0  0  0  0  0
   20.0584  -18.6292   -2.5210 H   0  0  0  0  0  0  0  0  0  0  0  0
  1  3  2  0  0  0  0
  1 10  1  0  0  0  0
  2  4  1  0  0  0  0
  2 10  2  0  0  0  0
  3 12  1  0  0  0  0
  4 12  2  0  0  0  0
  5  7  1  0  0  0  0
  5  9  2  0  0  0  0
  6  8  2  0  0  0  0
  6  9  1  0  0  0  0
  7 23  2  0  0  0  0
  8 28  1  0  0  0  0
  9 11  1  0  0  0  0
 10 21  1  0  0  0  0
 11 13  2  0  0  0  0
 11 28  1  0  0  0  0
 12 29  1  0  0  0  0
 13 23  1  0  0  0  0
 13 25  1  0  0  0  0
 14 22  1  0  0  0  0
 14 26  1  0  0  0  0
 14 27  2  0  0  0  0
 15 21  1  0  0  0  0
 15 22  1  0  0  0  0
 16 18  1  0  0  0  0
 16 25  1  0  0  0  0
 17 19  1  0  0  0  0
 17 25  1  0  0  0  0
 18 26  1  0  0  0  0
 19 26  1  0  0  0  0
 20 21  1  0  0  0  0
 20 24  1  0  0  0  0
 22 24  1  0  0  0  0
  1 30  1  0  0  0  0
  2 31  1  0  0  0  0
  3 32  1  0  0  0  0
  4 33  1  0  0  0  0
  5 34  1  0  0  0  0
  6 35  1  0  0  0  0
  7 36  1  0  0  0  0
  8 37  1  0  0  0  0
 15 38  1  0  0  0  0
 15 39  1  0  0  0  0
 16 40  1  0  0  0  0
 16 41  1  0  0  0  0
 17 42  1  0  0  0  0
 17 43  1  0  0  0  0
 18 44  1  0  0  0  0
 18 45  1  0  0  0  0
 19 46  1  0  0  0  0
 19 47  1  0  0  0  0
 20 48  1  0  0  0  0
 20 49  1  0  0  0  0
 21 50  1  0  0  0  0
 22 51  1  0  0  0  0
 24 52  1  0  0  0  0
M  END
> <HYBRID receptor title>
7ZZO(A) > KIZ(A-604)

> <HYBRID receptor filename>
data/docking/pairs/5_frag.oedu

> <HYBRID Chemgauss4 score>
-4.173911

> <HYBRID receptor title>
7ZZO(A) > KIZ(A-604)

> <HYBRID receptor filename>
data/docking/pairs/5_frag.oedu

> <Dock Type>
Hybrid

$$$$
