molecule_1
  -OEChem-08062404063D

 51 55  0     0  0  0  0  0  0999 V2000
  -30.2187  -37.8009   -6.6782 C   0  0  0  0  0  0  0  0  0  0  0  0
  -32.4321  -36.4342   -4.3138 C   0  0  0  0  0  0  0  0  0  0  0  0
  -32.4799  -35.2921   -3.5156 C   0  0  0  0  0  0  0  0  0  0  0  0
  -34.8244  -36.7090   -4.0771 C   0  0  0  0  0  0  0  0  0  0  0  0
  -28.7182  -39.1189   -3.5369 C   0  0  0  0  0  0  0  0  0  0  0  0
  -34.5041  -38.8711   -6.2834 C   0  0  0  0  0  0  0  0  0  0  0  0
  -30.0921  -38.4774   -5.4183 C   0  0  0  0  0  0  0  0  0  0  0  0
  -33.6008  -37.1404   -4.5933 C   0  0  0  0  0  0  0  0  0  0  0  0
  -33.5448  -38.3176   -5.4144 C   0  0  0  0  0  0  0  0  0  0  0  0
  -31.1805  -39.1388   -4.8496 C   0  0  0  0  0  0  0  0  0  0  0  0
  -33.7052  -34.8608   -2.9987 C   0  0  0  0  0  0  0  0  0  0  0  0
  -34.8738  -35.5647   -3.2771 C   0  0  0  0  0  0  0  0  0  0  0  0
  -28.8612  -38.4674   -4.7620 C   0  0  0  0  0  0  0  0  0  0  0  0
  -31.0375  -39.7903   -3.6246 C   0  0  0  0  0  0  0  0  0  0  0  0
  -29.8066  -39.7803   -2.9682 C   0  0  0  0  0  0  0  0  0  0  0  0
  -32.4708  -39.1695   -5.5025 C   0  0  0  0  0  0  0  0  0  0  0  0
  -36.1274  -35.0453   -2.6937 C   0  0  0  0  0  0  0  0  0  0  0  0
  -33.7817  -33.6583   -2.1533 C   0  0  0  0  0  0  0  0  0  0  0  0
  -25.4829  -37.9222   -6.2366 C   0  0  0  0  0  0  0  0  0  0  0  0
  -25.3906  -38.2937   -4.7854 C   0  0  0  0  0  0  0  0  0  0  0  0
  -26.6288  -38.6261   -5.5671 C   0  0  0  0  0  0  0  0  0  0  0  0
  -32.0491  -41.2742   -6.8183 C   0  0  0  0  0  0  0  0  0  0  0  0
  -37.4230  -35.7731   -2.9651 C   0  0  0  0  0  0  0  0  0  0  0  0
  -30.3209  -37.2540   -7.6967 N   0  0  0  0  0  0  0  0  0  0  0  0
  -34.0772  -39.9875   -6.8795 N   0  0  0  0  0  0  0  0  0  0  0  0
  -36.1823  -33.9840   -1.9514 N   0  0  0  0  0  0  0  0  0  0  0  0
  -32.8376  -40.1430   -6.3844 N   0  0  0  0  0  0  0  0  0  0  0  0
  -35.0343  -33.3151   -1.6929 N   0  0  0  0  0  0  0  0  0  0  0  0
  -37.8404  -35.4775   -4.3036 N   0  0  0  0  0  0  0  0  0  0  0  0
  -32.7689  -33.0164   -1.8905 O   0  0  0  0  0  0  0  0  0  0  0  0
  -27.7784  -37.8291   -5.2920 O   0  0  0  0  0  0  0  0  0  0  0  0
  -32.0830  -40.4293   -3.0755 F   0  0  0  0  0  0  0  0  0  0  0  0
  -29.6229  -40.5840   -1.4566 Cl  0  0  0  0  0  0  0  0  0  0  0  0
  -31.4736  -36.7618   -4.7098 H   0  0  0  0  0  0  0  0  0  0  0  0
  -31.5585  -34.7552   -3.3086 H   0  0  0  0  0  0  0  0  0  0  0  0
  -35.7260  -37.2709   -4.3057 H   0  0  0  0  0  0  0  0  0  0  0  0
  -27.7553  -39.1062   -3.0313 H   0  0  0  0  0  0  0  0  0  0  0  0
  -35.4977  -38.5104   -6.5100 H   0  0  0  0  0  0  0  0  0  0  0  0
  -25.5965  -36.8740   -6.4826 H   0  0  0  0  0  0  0  0  0  0  0  0
  -24.8857  -38.4876   -6.9412 H   0  0  0  0  0  0  0  0  0  0  0  0
  -24.7311  -39.1088   -4.5139 H   0  0  0  0  0  0  0  0  0  0  0  0
  -25.4425  -37.4950   -4.0559 H   0  0  0  0  0  0  0  0  0  0  0  0
  -26.7940  -39.6653   -5.8248 H   0  0  0  0  0  0  0  0  0  0  0  0
  -32.2108  -42.1377   -6.1644 H   0  0  0  0  0  0  0  0  0  0  0  0
  -30.9856  -41.0158   -6.8063 H   0  0  0  0  0  0  0  0  0  0  0  0
  -32.3282  -41.5791   -7.8322 H   0  0  0  0  0  0  0  0  0  0  0  0
  -37.2537  -36.8380   -2.8370 H   0  0  0  0  0  0  0  0  0  0  0  0
  -38.1700  -35.4383   -2.2521 H   0  0  0  0  0  0  0  0  0  0  0  0
  -35.1020  -32.4879   -1.1085 H   0  0  0  0  0  0  0  0  0  0  0  0
  -38.6946  -35.9959   -4.5345 H   0  0  0  0  0  0  0  0  0  0  0  0
  -37.1386  -35.8023   -4.9775 H   0  0  0  0  0  0  0  0  0  0  0  0
  1  7  1  0  0  0  0
  1 24  3  0  0  0  0
  2  3  2  0  0  0  0
  2  8  1  0  0  0  0
  3 11  1  0  0  0  0
  4  8  2  0  0  0  0
  4 12  1  0  0  0  0
  5 13  2  0  0  0  0
  5 15  1  0  0  0  0
  6  9  1  0  0  0  0
  6 25  2  0  0  0  0
  7 10  2  0  0  0  0
  7 13  1  0  0  0  0
  8  9  1  0  0  0  0
  9 16  2  0  0  0  0
 10 14  1  0  0  0  0
 10 16  1  0  0  0  0
 11 12  2  0  0  0  0
 11 18  1  0  0  0  0
 12 17  1  0  0  0  0
 13 31  1  0  0  0  0
 14 15  2  0  0  0  0
 14 32  1  0  0  0  0
 15 33  1  0  0  0  0
 16 27  1  0  0  0  0
 17 23  1  0  0  0  0
 17 26  2  0  0  0  0
 18 28  1  0  0  0  0
 18 30  2  0  0  0  0
 19 20  1  0  0  0  0
 19 21  1  0  0  0  0
 20 21  1  0  0  0  0
 21 31  1  0  0  0  0
 22 27  1  0  0  0  0
 23 29  1  0  0  0  0
 25 27  1  0  0  0  0
 26 28  1  0  0  0  0
  2 34  1  0  0  0  0
  3 35  1  0  0  0  0
  4 36  1  0  0  0  0
  5 37  1  0  0  0  0
  6 38  1  0  0  0  0
 19 39  1  0  0  0  0
 19 40  1  0  0  0  0
 20 41  1  0  0  0  0
 20 42  1  0  0  0  0
 21 43  1  0  0  0  0
 22 44  1  0  0  0  0
 22 45  1  0  0  0  0
 22 46  1  0  0  0  0
 23 47  1  0  0  0  0
 23 48  1  0  0  0  0
 28 49  1  0  0  0  0
 29 50  1  0  0  0  0
 29 51  1  0  0  0  0
M  END
> <HYBRID receptor title>
6_FRAG(AB) > MTA(A-705)

> <HYBRID receptor filename>
data/docking/pairs/6_frag.oedu

> <HYBRID Chemgauss4 score>
-2.333999

> <HYBRID receptor title>
6_FRAG(AB) > MTA(A-705)

> <HYBRID receptor filename>
data/docking/pairs/6_frag.oedu

> <Dock Type>
Hybrid

$$$$
