molecule_1
  -OEChem-08062404063D

 51 55  0     0  0  0  0  0  0999 V2000
  -29.7515  -50.2268  -11.5780 C   0  0  0  0  0  0  0  0  0  0  0  0
  -29.6366  -46.8448  -10.6255 C   0  0  0  0  0  0  0  0  0  0  0  0
  -28.7693  -45.7699  -10.8155 C   0  0  0  0  0  0  0  0  0  0  0  0
  -31.4331  -45.3120  -10.0987 C   0  0  0  0  0  0  0  0  0  0  0  0
  -27.6840  -50.4842   -8.4933 C   0  0  0  0  0  0  0  0  0  0  0  0
  -33.2434  -47.8302  -10.2627 C   0  0  0  0  0  0  0  0  0  0  0  0
  -29.3440  -50.1021  -10.2071 C   0  0  0  0  0  0  0  0  0  0  0  0
  -30.9643  -46.6163  -10.2680 C   0  0  0  0  0  0  0  0  0  0  0  0
  -31.8524  -47.7280  -10.0714 C   0  0  0  0  0  0  0  0  0  0  0  0
  -30.1765  -49.4961   -9.2662 C   0  0  0  0  0  0  0  0  0  0  0  0
  -29.2392  -44.4642  -10.6456 C   0  0  0  0  0  0  0  0  0  0  0  0
  -30.5652  -44.2339  -10.2887 C   0  0  0  0  0  0  0  0  0  0  0  0
  -28.0979  -50.5959   -9.8207 C   0  0  0  0  0  0  0  0  0  0  0  0
  -29.7626  -49.3844   -7.9388 C   0  0  0  0  0  0  0  0  0  0  0  0
  -28.5165  -49.8783   -7.5524 C   0  0  0  0  0  0  0  0  0  0  0  0
  -31.4746  -48.9734   -9.6319 C   0  0  0  0  0  0  0  0  0  0  0  0
  -30.9841  -42.8267  -10.1281 C   0  0  0  0  0  0  0  0  0  0  0  0
  -28.3431  -43.3128  -10.8401 C   0  0  0  0  0  0  0  0  0  0  0  0
  -25.3297  -50.8348  -12.2375 C   0  0  0  0  0  0  0  0  0  0  0  0
  -25.9109  -49.4883  -11.9189 C   0  0  0  0  0  0  0  0  0  0  0  0
  -25.9812  -50.5940  -10.9055 C   0  0  0  0  0  0  0  0  0  0  0  0
  -32.7476  -51.1006   -9.1918 C   0  0  0  0  0  0  0  0  0  0  0  0
  -32.4124  -42.5231   -9.7410 C   0  0  0  0  0  0  0  0  0  0  0  0
  -30.0809  -50.3276  -12.6862 N   0  0  0  0  0  0  0  0  0  0  0  0
  -33.7167  -49.0441   -9.9691 N   0  0  0  0  0  0  0  0  0  0  0  0
  -30.1857  -41.8206  -10.3035 N   0  0  0  0  0  0  0  0  0  0  0  0
  -32.6173  -49.7167   -9.5886 N   0  0  0  0  0  0  0  0  0  0  0  0
  -28.9005  -42.0671  -10.6496 N   0  0  0  0  0  0  0  0  0  0  0  0
  -33.2467  -42.7142  -10.8902 N   0  0  0  0  0  0  0  0  0  0  0  0
  -27.1691  -43.4836  -11.1553 O   0  0  0  0  0  0  0  0  0  0  0  0
  -27.2611  -51.1932  -10.7172 O   0  0  0  0  0  0  0  0  0  0  0  0
  -30.5625  -48.8031   -7.0305 F   0  0  0  0  0  0  0  0  0  0  0  0
  -28.0001  -49.7451   -5.9152 Cl  0  0  0  0  0  0  0  0  0  0  0  0
  -29.2606  -47.8566  -10.7591 H   0  0  0  0  0  0  0  0  0  0  0  0
  -27.7380  -45.9680  -11.0937 H   0  0  0  0  0  0  0  0  0  0  0  0
  -32.4714  -45.1519   -9.8207 H   0  0  0  0  0  0  0  0  0  0  0  0
  -26.7108  -50.8715   -8.2001 H   0  0  0  0  0  0  0  0  0  0  0  0
  -33.9354  -47.0729  -10.6039 H   0  0  0  0  0  0  0  0  0  0  0  0
  -25.8498  -51.4503  -12.9605 H   0  0  0  0  0  0  0  0  0  0  0  0
  -24.2508  -50.9257  -12.2624 H   0  0  0  0  0  0  0  0  0  0  0  0
  -25.2229  -48.6734  -11.7299 H   0  0  0  0  0  0  0  0  0  0  0  0
  -26.8220  -49.1989  -12.4278 H   0  0  0  0  0  0  0  0  0  0  0  0
  -25.3337  -50.5216  -10.0400 H   0  0  0  0  0  0  0  0  0  0  0  0
  -32.9361  -51.1831   -8.1161 H   0  0  0  0  0  0  0  0  0  0  0  0
  -31.8305  -51.6470   -9.4330 H   0  0  0  0  0  0  0  0  0  0  0  0
  -33.5892  -51.5768   -9.7054 H   0  0  0  0  0  0  0  0  0  0  0  0
  -32.7009  -43.1916   -8.9356 H   0  0  0  0  0  0  0  0  0  0  0  0
  -32.4719  -41.4956   -9.3957 H   0  0  0  0  0  0  0  0  0  0  0  0
  -28.2940  -41.2637  -10.7803 H   0  0  0  0  0  0  0  0  0  0  0  0
  -34.2311  -42.5612  -10.6467 H   0  0  0  0  0  0  0  0  0  0  0  0
  -33.1974  -43.6874  -11.2106 H   0  0  0  0  0  0  0  0  0  0  0  0
  1  7  1  0  0  0  0
  1 24  3  0  0  0  0
  2  3  2  0  0  0  0
  2  8  1  0  0  0  0
  3 11  1  0  0  0  0
  4  8  2  0  0  0  0
  4 12  1  0  0  0  0
  5 13  2  0  0  0  0
  5 15  1  0  0  0  0
  6  9  1  0  0  0  0
  6 25  2  0  0  0  0
  7 10  2  0  0  0  0
  7 13  1  0  0  0  0
  8  9  1  0  0  0  0
  9 16  2  0  0  0  0
 10 14  1  0  0  0  0
 10 16  1  0  0  0  0
 11 12  2  0  0  0  0
 11 18  1  0  0  0  0
 12 17  1  0  0  0  0
 13 31  1  0  0  0  0
 14 15  2  0  0  0  0
 14 32  1  0  0  0  0
 15 33  1  0  0  0  0
 16 27  1  0  0  0  0
 17 23  1  0  0  0  0
 17 26  2  0  0  0  0
 18 28  1  0  0  0  0
 18 30  2  0  0  0  0
 19 20  1  0  0  0  0
 19 21  1  0  0  0  0
 20 21  1  0  0  0  0
 21 31  1  0  0  0  0
 22 27  1  0  0  0  0
 23 29  1  0  0  0  0
 25 27  1  0  0  0  0
 26 28  1  0  0  0  0
  2 34  1  0  0  0  0
  3 35  1  0  0  0  0
  4 36  1  0  0  0  0
  5 37  1  0  0  0  0
  6 38  1  0  0  0  0
 19 39  1  0  0  0  0
 19 40  1  0  0  0  0
 20 41  1  0  0  0  0
 20 42  1  0  0  0  0
 21 43  1  0  0  0  0
 22 44  1  0  0  0  0
 22 45  1  0  0  0  0
 22 46  1  0  0  0  0
 23 47  1  0  0  0  0
 23 48  1  0  0  0  0
 28 49  1  0  0  0  0
 29 50  1  0  0  0  0
 29 51  1  0  0  0  0
M  END
> <HYBRID receptor title>
6_LEAD(AB) > 85K(A-702)

> <HYBRID receptor filename>
data/docking/pairs/6_lead.oedu

> <HYBRID Chemgauss4 score>
-17.957718

> <HYBRID receptor title>
6_LEAD(AB) > 85K(A-702)

> <HYBRID receptor filename>
data/docking/pairs/6_lead.oedu

> <Dock Type>
Hybrid

$$$$
