molecule_1
  -OEChem-08062404063D

 20 21  0     0  0  0  0  0  0999 V2000
  -34.3265  -38.7161   -6.9734 C   0  0  0  0  0  0  0  0  0  0  0  0
  -32.9361  -38.8669   -6.9170 C   0  0  0  0  0  0  0  0  0  0  0  0
  -35.0070  -37.9451   -6.0280 C   0  0  0  0  0  0  0  0  0  0  0  0
  -32.2336  -38.2229   -5.8846 C   0  0  0  0  0  0  0  0  0  0  0  0
  -32.9384  -37.4609   -4.9570 C   0  0  0  0  0  0  0  0  0  0  0  0
  -34.3231  -37.2967   -4.9941 C   0  0  0  0  0  0  0  0  0  0  0  0
  -30.7665  -37.4567   -4.5349 C   0  0  0  0  0  0  0  0  0  0  0  0
  -32.1784  -36.1299   -2.9545 C   0  0  0  0  0  0  0  0  0  0  0  0
  -30.8854  -38.2089   -5.6066 N   0  0  0  0  0  0  0  0  0  0  0  0
  -31.9745  -36.9830   -4.1061 N   0  0  0  0  0  0  0  0  0  0  0  0
  -29.6398  -37.1273   -3.8594 N   0  0  0  0  0  0  0  0  0  0  0  0
  -35.2042  -36.3588   -3.8574 Cl  0  0  0  0  0  0  0  0  0  0  0  0
  -34.8848  -39.2078   -7.7660 H   0  0  0  0  0  0  0  0  0  0  0  0
  -32.4173  -39.4685   -7.6564 H   0  0  0  0  0  0  0  0  0  0  0  0
  -36.0884  -37.8559   -6.1105 H   0  0  0  0  0  0  0  0  0  0  0  0
  -32.3466  -36.7258   -2.0511 H   0  0  0  0  0  0  0  0  0  0  0  0
  -33.0455  -35.4822   -3.1172 H   0  0  0  0  0  0  0  0  0  0  0  0
  -31.2986  -35.5046   -2.7707 H   0  0  0  0  0  0  0  0  0  0  0  0
  -28.7201  -37.5065   -4.1195 H   0  0  0  0  0  0  0  0  0  0  0  0
  -29.6673  -36.5702   -2.9956 H   0  0  0  0  0  0  0  0  0  0  0  0
  1  2  2  0  0  0  0
  1  3  1  0  0  0  0
  2  4  1  0  0  0  0
  3  6  2  0  0  0  0
  4  5  2  0  0  0  0
  4  9  1  0  0  0  0
  5  6  1  0  0  0  0
  5 10  1  0  0  0  0
  6 12  1  0  0  0  0
  7  9  2  0  0  0  0
  7 10  1  0  0  0  0
  7 11  1  0  0  0  0
  8 10  1  0  0  0  0
  1 13  1  0  0  0  0
  2 14  1  0  0  0  0
  3 15  1  0  0  0  0
  8 16  1  0  0  0  0
  8 17  1  0  0  0  0
  8 18  1  0  0  0  0
 11 19  1  0  0  0  0
 11 20  1  0  0  0  0
M  END
> <HYBRID receptor title>
7_FRAG(AB) > MTA(A-802)

> <HYBRID receptor filename>
data/docking/pairs/7_frag.oedu

> <HYBRID Chemgauss4 score>
-9.161366

> <HYBRID receptor title>
7_FRAG(AB) > MTA(A-802)

> <HYBRID receptor filename>
data/docking/pairs/7_frag.oedu

> <Dock Type>
Hybrid

$$$$
