molecule_1
  -OEChem-08062404073D

 38 40  0     0  0  0  0  0  0999 V2000
  -27.1728  -37.3799   -6.7988 C   0  0  0  0  0  0  0  0  0  0  0  0
  -27.6278  -38.6039   -7.2892 C   0  0  0  0  0  0  0  0  0  0  0  0
  -27.9013  -36.7083   -5.8172 C   0  0  0  0  0  0  0  0  0  0  0  0
  -28.8108  -39.1563   -6.7979 C   0  0  0  0  0  0  0  0  0  0  0  0
  -29.0843  -37.2607   -5.3259 C   0  0  0  0  0  0  0  0  0  0  0  0
  -33.6730  -37.1483   -2.9149 C   0  0  0  0  0  0  0  0  0  0  0  0
  -37.0127  -34.8093   -3.6045 C   0  0  0  0  0  0  0  0  0  0  0  0
  -34.5127  -38.7368   -4.4523 C   0  0  0  0  0  0  0  0  0  0  0  0
  -29.5393  -38.4846   -5.8162 C   0  0  0  0  0  0  0  0  0  0  0  0
  -33.5186  -38.3608   -3.5752 C   0  0  0  0  0  0  0  0  0  0  0  0
  -36.8593  -36.0221   -4.2648 C   0  0  0  0  0  0  0  0  0  0  0  0
  -34.7882  -36.3475   -3.1326 C   0  0  0  0  0  0  0  0  0  0  0  0
  -35.7440  -36.8230   -4.0473 C   0  0  0  0  0  0  0  0  0  0  0  0
  -36.0195  -34.4336   -2.7276 C   0  0  0  0  0  0  0  0  0  0  0  0
  -30.7985  -39.0732   -5.2934 C   0  0  0  0  0  0  0  0  0  0  0  0
  -37.9274  -36.4498   -5.2217 C   0  0  0  0  0  0  0  0  0  0  0  0
  -32.3265  -39.2181   -3.3440 C   0  0  0  0  0  0  0  0  0  0  0  0
  -35.6136  -37.9960   -4.6982 N   0  0  0  0  0  0  0  0  0  0  0  0
  -34.9185  -35.1747   -2.4826 N   0  0  0  0  0  0  0  0  0  0  0  0
  -36.1746  -33.1982   -2.0530 N   0  0  0  0  0  0  0  0  0  0  0  0
  -31.1458  -38.7118   -3.9998 N   0  0  0  0  0  0  0  0  0  0  0  0
  -31.4409  -39.8430   -6.0027 O   0  0  0  0  0  0  0  0  0  0  0  0
  -26.2518  -36.9500   -7.1814 H   0  0  0  0  0  0  0  0  0  0  0  0
  -27.0613  -39.1274   -8.0539 H   0  0  0  0  0  0  0  0  0  0  0  0
  -27.5483  -35.7545   -5.4356 H   0  0  0  0  0  0  0  0  0  0  0  0
  -29.1553  -40.1108   -7.1877 H   0  0  0  0  0  0  0  0  0  0  0  0
  -29.6438  -36.7281   -4.5609 H   0  0  0  0  0  0  0  0  0  0  0  0
  -32.9063  -36.8200   -2.2149 H   0  0  0  0  0  0  0  0  0  0  0  0
  -37.8849  -34.1864   -3.7768 H   0  0  0  0  0  0  0  0  0  0  0  0
  -34.4588  -39.6705   -5.0030 H   0  0  0  0  0  0  0  0  0  0  0  0
  -37.7179  -36.0862   -6.2342 H   0  0  0  0  0  0  0  0  0  0  0  0
  -38.9029  -36.0440   -4.9292 H   0  0  0  0  0  0  0  0  0  0  0  0
  -37.9946  -37.5427   -5.2475 H   0  0  0  0  0  0  0  0  0  0  0  0
  -32.0938  -39.3010   -2.2715 H   0  0  0  0  0  0  0  0  0  0  0  0
  -32.4845  -40.2441   -3.7098 H   0  0  0  0  0  0  0  0  0  0  0  0
  -36.9602  -32.6250   -2.2727 H   0  0  0  0  0  0  0  0  0  0  0  0
  -35.4432  -32.8813   -1.4540 H   0  0  0  0  0  0  0  0  0  0  0  0
  -30.5291  -38.1181   -3.4529 H   0  0  0  0  0  0  0  0  0  0  0  0
  1  2  1  0  0  0  0
  1  3  2  0  0  0  0
  2  4  2  0  0  0  0
  3  5  1  0  0  0  0
  4  9  1  0  0  0  0
  5  9  2  0  0  0  0
  6 10  2  0  0  0  0
  6 12  1  0  0  0  0
  7 11  1  0  0  0  0
  7 14  2  0  0  0  0
  8 10  1  0  0  0  0
  8 18  2  0  0  0  0
  9 15  1  0  0  0  0
 10 17  1  0  0  0  0
 11 13  2  0  0  0  0
 11 16  1  0  0  0  0
 12 13  1  0  0  0  0
 12 19  2  0  0  0  0
 13 18  1  0  0  0  0
 14 19  1  0  0  0  0
 14 20  1  0  0  0  0
 15 21  1  0  0  0  0
 15 22  2  0  0  0  0
 17 21  1  0  0  0  0
  1 23  1  0  0  0  0
  2 24  1  0  0  0  0
  3 25  1  0  0  0  0
  4 26  1  0  0  0  0
  5 27  1  0  0  0  0
  6 28  1  0  0  0  0
  7 29  1  0  0  0  0
  8 30  1  0  0  0  0
 16 31  1  0  0  0  0
 16 32  1  0  0  0  0
 16 33  1  0  0  0  0
 17 34  1  0  0  0  0
 17 35  1  0  0  0  0
 20 36  1  0  0  0  0
 20 37  1  0  0  0  0
 21 38  1  0  0  0  0
M  END
> <HYBRID receptor title>
8_FRAG(AB) > MTA(A-702)

> <HYBRID receptor filename>
data/docking/pairs/8_frag.oedu

> <HYBRID Chemgauss4 score>
-9.029377

> <HYBRID receptor title>
8_FRAG(AB) > MTA(A-702)

> <HYBRID receptor filename>
data/docking/pairs/8_frag.oedu

> <Dock Type>
Hybrid

$$$$
